REMARK WARNING: 32 MAX_TORS EXCEEDED!!!
REMARK  68 active torsions:
REMARK  status: ('A' for Active; 'I' for Inactive)
REMARK    1  A    between atoms: N_1  and  CA_2 
REMARK    2  A    between atoms: CA_2  and  C_3 
REMARK       I    between atoms: C_3  and  N_7 
REMARK    3  A    between atoms: N_7  and  CA_8 
REMARK    4  A    between atoms: CA_8  and  CB_11 
REMARK    5  A    between atoms: CA_8  and  C_9 
REMARK       I    between atoms: C_9  and  N_18 
REMARK    6  A    between atoms: CB_11  and  CG_12 
REMARK       I    between atoms: CG_12  and  ND2_13 
REMARK    7  A    between atoms: N_18  and  CA_19 
REMARK    8  A    between atoms: CA_19  and  C_20 
REMARK       I    between atoms: C_20  and  N_23 
REMARK    9  A    between atoms: N_23  and  CA_24 
REMARK   10  A    between atoms: CA_24  and  C_25 
REMARK   11  A    between atoms: CA_24  and  CB_27 
REMARK       I    between atoms: C_25  and  N_31 
REMARK   12  A    between atoms: CA_32  and  C_33 
REMARK       I    between atoms: C_33  and  N_38 
REMARK   13  A    between atoms: N_38  and  CA_39 
REMARK   14  A    between atoms: CA_39  and  CB_42 
REMARK   15  A    between atoms: CA_39  and  C_40 
REMARK       I    between atoms: C_40  and  N_49 
REMARK   16  A    between atoms: CB_42  and  CG_43 
REMARK       I    between atoms: CG_43  and  ND2_44 
REMARK   17  A    between atoms: N_49  and  CA_50 
REMARK   18  A    between atoms: CA_50  and  C_51 
REMARK   19  A    between atoms: CA_50  and  CB_53 
REMARK       I    between atoms: C_51  and  N_58 
REMARK   20  A    between atoms: CB_53  and  CG_54 
REMARK   21  A    between atoms: N_58  and  CA_59 
REMARK   22  A    between atoms: CA_59  and  CB_62 
REMARK   23  A    between atoms: CA_59  and  C_60 
REMARK       I    between atoms: C_60  and  N_75 
REMARK   24  A    between atoms: CB_62  and  CG_63 
REMARK   25  A    between atoms: CG_63  and  CD_64 
REMARK   26  A    between atoms: CD_64  and  NE_65 
REMARK       I    between atoms: NE_65  and  CZ_66 
REMARK       I    between atoms: CZ_66  and  NH2_68 
REMARK       I    between atoms: CZ_66  and  NH1_67 
REMARK   27  A    between atoms: N_75  and  CA_76 
REMARK   28  A    between atoms: CA_76  and  C_77 
REMARK       I    between atoms: C_77  and  N_80 
REMARK   29  A    between atoms: N_80  and  CA_81 
REMARK   30  A    between atoms: CA_81  and  CB_84 
REMARK   31  A    between atoms: CA_81  and  C_82 
REMARK       I    between atoms: C_82  and  N_89 
REMARK   32  A    between atoms: CB_84  and  CG_85 
REMARK   33  A    between atoms: N_89  and  CA_90 
REMARK   34  A    between atoms: CA_90  and  C_91 
REMARK   35  A    between atoms: CA_90  and  CB_93 
REMARK       I    between atoms: C_91  and  N_98 
REMARK   36  A    between atoms: CB_93  and  CG_94 
REMARK   37  A    between atoms: N_98  and  CA_99 
REMARK   38  A    between atoms: CA_99  and  CB_102 
REMARK   39  A    between atoms: CA_99  and  C_100 
REMARK       I    between atoms: C_100  and  N_110 
REMARK   40  A    between atoms: CB_102  and  CG_103 
REMARK   41  A    between atoms: CG_103  and  CD_104 
REMARK       I    between atoms: CD_104  and  NE2_105 
REMARK   42  A    between atoms: N_110  and  CA_111 
REMARK   43  A    between atoms: CA_111  and  CB_114 
REMARK   44  A    between atoms: CA_111  and  C_112 
REMARK       I    between atoms: C_112  and  N_118 
REMARK   45  A    between atoms: N_118  and  CA_119 
REMARK   46  A    between atoms: CA_119  and  C_120 
REMARK   47  A    between atoms: CA_119  and  CB_122 
REMARK       I    between atoms: C_120  and  N_127 
REMARK   48  A    between atoms: CB_122  and  CG_123 
REMARK   49  A    between atoms: N_127  and  CA_128 
REMARK   50  A    between atoms: CA_128  and  C_129 
REMARK       I    between atoms: C_129  and  N_132 
REMARK   51  A    between atoms: N_132  and  CA_133 
REMARK   52  A    between atoms: CA_144  and  C_145 
REMARK       I    between atoms: C_145  and  N_158 
REMARK   53  A    between atoms: CZ_151  and  NH1_152 
REMARK   54  A    between atoms: N_158  and  CA_159 
REMARK   55  A    between atoms: CA_159  and  CB_162 
REMARK   56  A    between atoms: CA_159  and  C_160 
REMARK       I    between atoms: C_160  and  N_166 
REMARK   57  A    between atoms: N_166  and  CA_167 
REMARK   58  A    between atoms: CA_167  and  C_168 
REMARK       I    between atoms: C_168  and  N_171 
REMARK   59  A    between atoms: N_171  and  CA_172 
REMARK   60  A    between atoms: CA_172  and  CB_175 
REMARK   61  A    between atoms: CA_172  and  C_173 
REMARK       I    between atoms: C_173  and  N_188 
REMARK   62  A    between atoms: CB_175  and  CG_176 
REMARK   63  A    between atoms: CG_176  and  CD_177 
REMARK   64  A    between atoms: CD_177  and  NE_178 
REMARK       I    between atoms: NE_178  and  CZ_179 
REMARK       I    between atoms: CZ_179  and  NH1_180 
REMARK   65  A    between atoms: N_188  and  CA_189 
REMARK   66  A    between atoms: CA_189  and  C_190 
REMARK   67  A    between atoms: CA_189  and  CB_192 
REMARK   68  A    between atoms: CB_192  and  OG1_194 
ROOT
ATOM      1  C   LEU A  11      -6.528  -7.230  -0.204  0.00  0.00     0.241 C 
ATOM      2  O   LEU A  11      -7.044  -6.257   0.342  0.00  0.00    -0.271 OA
ATOM      3  N   GLN A  12      -7.238  -8.271  -0.645  0.00  0.00    -0.346 N 
ATOM      4  H12 GLN A  12      -6.758  -9.042  -1.086  0.00  0.00     0.163 HD
ENDROOT
BRANCH   3   5
ATOM      5  CA  GLN A  12      -8.689  -8.324  -0.507  0.00  0.00     0.177 C 
BRANCH   5   6
ATOM      6  CB  GLN A  12      -9.285  -9.379  -1.434  1.00 35.00     0.044 C 
BRANCH   6   7
ATOM      7  CG  GLN A  12      -9.160  -9.045  -2.912  1.00 35.00     0.105 C 
BRANCH   7   8
ATOM      8  CD  GLN A  12      -9.710 -10.140  -3.804  1.00 35.00     0.215 C 
ATOM      9  NE2 GLN A  12      -9.660  -9.915  -5.113  1.00 35.00    -0.370 N 
ATOM     10  H07 GLN A  12      -9.270  -9.051  -5.462  1.00 35.00     0.159 HD
ATOM     11  H06 GLN A  12     -10.012 -10.608  -5.758  1.00 35.00     0.159 HD
ATOM     12  OE1 GLN A  12     -10.174 -11.173  -3.323  1.00 35.00    -0.274 OA
ENDBRANCH   7   8
ENDBRANCH   6   7
ENDBRANCH   5   6
BRANCH   5  13
ATOM     13  C   GLN A  12      -9.065  -8.614   0.943  0.00  0.00     0.241 C 
ATOM     14  N   VAL A  13      -8.277  -9.451   1.623  0.00  0.00    -0.346 N 
ATOM     15  H08 VAL A  13      -7.474  -9.855   1.162  0.00  0.00     0.163 HD
ATOM     16  O   GLN A  12     -10.058  -8.086   1.438  0.00  0.00    -0.271 OA
BRANCH  14  17
ATOM     17  CA  VAL A  13      -8.546  -9.797   3.014  0.00  0.00     0.180 C 
BRANCH  17  18
ATOM     18  CB  VAL A  13      -7.740 -11.042   3.444  1.00 73.00     0.009 C 
ATOM     19  CG2 VAL A  13      -8.132 -11.472   4.849  1.00 73.00     0.012 C 
ATOM     20  CG1 VAL A  13      -6.248 -10.744   3.431  1.00 73.00     0.012 C 
ENDBRANCH  17  18
BRANCH  17  21
ATOM     21  C   VAL A  13      -8.225  -8.651   3.969  0.00  0.00     0.241 C 
ATOM     22  N   LEU A  14      -7.043  -8.048   3.824  0.00  0.00    -0.346 N 
ATOM     23  H10 LEU A  14      -6.414  -8.366   3.100  0.00  0.00     0.163 HD
ATOM     24  O   VAL A  13      -9.040  -8.318   4.826  0.00  0.00    -0.271 OA
BRANCH  22  25
ATOM     25  CA  LEU A  14      -6.635  -6.942   4.683  0.00  0.00     0.177 C 
BRANCH  25  26
ATOM     26  C   LEU A  14      -5.991  -5.763   3.961  0.00  0.00     0.240 C 
ATOM     27  N   GLY A  15      -6.801  -4.942   3.288  0.00  0.00    -0.351 N 
ATOM     28  H12 GLY A  15      -7.794  -5.127   3.281  0.00  0.00     0.163 HD
ATOM     29  O   LEU A  14      -4.774  -5.599   4.014  0.00  0.00    -0.271 OA
BRANCH  27  30
ATOM     30  CA  GLY A  15      -6.289  -3.784   2.563  0.00  0.00     0.225 C 
BRANCH  30  31
ATOM     31  C   GLY A  15      -5.897  -2.586   3.422  0.00  0.00     0.236 C 
ATOM     32  N   GLN A  16      -6.624  -2.355   4.517  0.00  0.00    -0.346 N 
ATOM     33  H03 GLN A  16      -7.395  -2.970   4.734  0.00  0.00     0.163 HD
ATOM     34  O   GLY A  15      -4.946  -1.880   3.094  0.00  0.00    -0.272 OA
BRANCH  32  35
ATOM     35  CA  GLN A  16      -6.335  -1.237   5.409  0.00  0.00     0.177 C 
ATOM     36  C   GLN A  16      -4.961  -1.524   6.005  0.00  0.00     0.241 C 
ATOM     37  N   ARG A  17      -4.483  -2.763   5.872  0.00  0.00    -0.346 N 
ATOM     38  O   GLN A  16      -4.341  -0.631   6.580  0.00  0.00    -0.271 OA
ATOM     39  H08 ARG A  17      -5.038  -3.455   5.389  0.00  0.00     0.163 HD
ATOM     40  CA  ARG A  17      -3.180  -3.144   6.405  0.00  0.00     0.176 C 
ATOM     41  CB  ARG A  17      -3.228  -4.558   6.985  1.00  0.00     0.036 C 
ATOM     42  CG  ARG A  17      -3.715  -4.622   8.423  1.00  0.00     0.023 C 
ATOM     43  CD  ARG A  17      -5.226  -4.470   8.502  1.00  0.00     0.138 C 
ATOM     44  NE  ARG A  17      -5.627  -3.077   8.674  1.00  0.00    -0.223 N 
ATOM     45  H09 ARG A  17      -4.909  -2.402   8.896  1.00  0.00     0.177 HD
ATOM     46  CZ  ARG A  17      -6.877  -2.640   8.557  1.00  0.00     0.710 C 
ATOM     47  NH2 ARG A  17      -7.148  -1.354   8.730  1.00  0.00     0.019 NA
ATOM     48  NE2 GLN A  16      -6.157  -0.888   9.153  1.00 35.00    -0.231 N 
ATOM     49  H07 GLN A  16      -5.540  -1.167   9.902  1.00 35.00     0.192 HD
ATOM     50  CD  GLN A  16      -6.128   0.134   8.304  1.00 35.00     0.238 C 
ATOM     51  OE1 GLN A  16      -5.244   0.990   8.321  1.00 35.00    -0.272 OA
ATOM     52  CG  GLN A  16      -7.256   0.202   7.294  1.00 35.00     0.107 C 
ATOM     53  CB  GLN A  16      -7.388  -1.077   6.481  1.00 35.00     0.044 C 
BRANCH  40  54
ATOM     54  C   ARG A  17      -2.104  -3.053   5.327  0.00  0.00     0.241 C 
ATOM     55  N   VAL A  18      -2.332  -3.697   4.180  0.00  0.00    -0.346 N 
ATOM     56  H12 VAL A  18      -3.193  -4.212   4.068  0.00  0.00     0.163 HD
ATOM     57  O   ARG A  17      -1.079  -2.407   5.534  0.00  0.00    -0.271 OA
BRANCH  55  58
ATOM     58  CA  VAL A  18      -1.370  -3.676   3.084  0.00  0.00     0.180 C 
BRANCH  58  59
ATOM     59  CB  VAL A  18      -1.748  -4.681   1.981  1.00 73.00     0.009 C 
ATOM     60  CG2 VAL A  18      -3.135  -4.376   1.436  1.00 73.00     0.012 C 
ATOM     61  CG1 VAL A  18      -1.749  -6.100   2.529  1.00 73.00     0.012 C 
ENDBRANCH  58  59
BRANCH  58  62
ATOM     62  C   VAL A  18      -1.264  -2.281   2.476  0.00  0.00     0.241 C 
ATOM     63  N   GLY A  19      -2.345  -1.501   2.546  0.00  0.00    -0.351 N 
ATOM     64  H09 GLY A  19      -3.179  -1.856   2.991  0.00  0.00     0.163 HD
ATOM     65  O   VAL A  18      -0.215  -1.917   1.950  0.00  0.00    -0.271 OA
BRANCH  63  66
ATOM     66  CA  GLY A  19      -2.353  -0.150   1.996  0.00  0.00     0.225 C 
BRANCH  66  67
ATOM     67  C   GLY A  19      -1.557   0.773   2.914  0.00  0.00     0.236 C 
ATOM     68  N   ARG A  20      -1.605   0.522   4.224  0.00  0.00    -0.346 N 
ATOM     69  H03 ARG A  20      -2.157  -0.256   4.555  0.00  0.00     0.163 HD
ATOM     70  O   GLY A  19      -0.908   1.703   2.439  0.00  0.00    -0.272 OA
BRANCH  68  71
ATOM     71  CA  ARG A  20      -0.882   1.341   5.190  0.00  0.00     0.176 C 
BRANCH  71  72
ATOM     72  CB  ARG A  20      -1.557   1.268   6.563  1.00  0.00     0.036 C 
BRANCH  72  73
ATOM     73  CG  ARG A  20      -2.974   1.817   6.588  1.00  0.00     0.023 C 
BRANCH  73  74
ATOM     74  CD  ARG A  20      -2.986   3.324   6.393  1.00  0.00     0.138 C 
BRANCH  74  75
ATOM     75  NE  ARG A  20      -2.252   4.019   7.445  1.00  0.00    -0.227 N 
ATOM     76  CZ  ARG A  20      -2.765   4.334   8.631  1.00  0.00     0.665 C 
ATOM     77  NH1 ARG A  20      -4.022   4.019   8.914  1.00  0.00    -0.235 N 
ATOM     78  NH2 ARG A  20      -2.022   4.967   9.527  1.00  0.00    -0.235 N 
ATOM     79  H11 ARG A  20      -4.588   3.538   8.230  1.00  0.00     0.174 HD
ATOM     80  H10 ARG A  20      -4.413   4.260   9.814  1.00  0.00     0.174 HD
ATOM     81  H13 ARG A  20      -2.412   5.208  10.427  1.00  0.00     0.174 HD
ATOM     82  H12 ARG A  20      -1.066   5.208   9.310  1.00  0.00     0.174 HD
ATOM     83  H09 ARG A  20      -1.293   4.277   7.261  1.00  0.00     0.177 HD
ENDBRANCH  74  75
ENDBRANCH  73  74
ENDBRANCH  72  73
ENDBRANCH  71  72
BRANCH  71  84
ATOM     84  C   ARG A  20       0.578   0.915   5.303  0.00  0.00     0.241 C 
ATOM     85  N   THR A  21       0.842  -0.391   5.209  0.00  0.00    -0.346 N 
ATOM     86  H14 THR A  21       0.079  -1.038   5.068  0.00  0.00     0.163 HD
ATOM     87  O   ARG A  20       1.455   1.759   5.473  0.00  0.00    -0.271 OA
BRANCH  85  88
ATOM     88  CA  THR A  21       2.203  -0.908   5.304  0.00  0.00     0.174 C 
BRANCH  88  89
ATOM     89  C   THR A  21       2.908  -0.571   3.994  0.00  0.00     0.258 C 
ATOM     90  O   THR A  21       3.535   0.480   3.885  0.00  0.00    -0.305 OA
ENDBRANCH  88  89
BRANCH  88  91
ATOM     91  CB  THR A  21       2.245  -2.413   5.557  1.00 49.00     0.143 C 
ATOM     92  CG2 THR A  21       3.674  -2.867   5.810  1.00 49.00     0.042 C 
BRANCH  91  93
ATOM     93  OG1 THR A  21       1.448  -2.724   6.707  1.00 49.00    -0.393 OA
ATOM     94  H07 THR A  21       1.347  -1.938   7.249  1.00 49.00     0.210 HD
ENDBRANCH  91  93
ENDBRANCH  88  91
ENDBRANCH  85  88
ENDBRANCH  71  84
ENDBRANCH  68  71
ENDBRANCH  66  67
ENDBRANCH  63  66
ENDBRANCH  58  62
ENDBRANCH  55  58
ENDBRANCH  40  54
BRANCH  46  95
ATOM     95  NH1 ARG A  17      -7.852  -3.490   8.264  1.00  0.00    -0.232 N 
ATOM     96  H11 ARG A  17      -7.645  -4.470   8.131  1.00  0.00     0.174 HD
ATOM     97  H10 ARG A  17      -8.802  -3.158   8.174  1.00  0.00     0.174 HD
ENDBRANCH  46  95
ENDBRANCH  32  35
ENDBRANCH  30  31
ENDBRANCH  27  30
ENDBRANCH  25  26
BRANCH  25  98
ATOM     98  CB  LEU A  14      -5.656  -7.465   5.757  1.00 59.00     0.038 C 
BRANCH  98  99
ATOM     99  CG  LEU A  14      -6.215  -8.470   6.765  1.00 59.00    -0.020 C 
ATOM    100  CD1 LEU A  14      -5.110  -8.995   7.670  1.00 59.00     0.009 C 
ATOM    101  CD2 LEU A  14      -7.276  -7.820   7.640  1.00 59.00     0.009 C 
ENDBRANCH  98  99
ENDBRANCH  25  98
ENDBRANCH  22  25
ENDBRANCH  17  21
ENDBRANCH  14  17
ENDBRANCH   5  13
ENDBRANCH   3   5
BRANCH   1 102
ATOM    102  CA  LEU A  11      -5.016  -7.282  -0.402  0.00  0.00     0.177 C 
BRANCH 102 103
ATOM    103  N   LEU A  11      -4.443  -8.595  -0.126  0.00  0.00    -0.346 N 
ATOM    104  H05 LEU A  11      -4.068  -9.138  -0.890  0.00  0.00     0.163 HD
ATOM    105  C   ASP A  10      -4.401  -9.097   1.110  0.00  0.00     0.241 C 
ATOM    106  O   ASP A  10      -4.836  -8.493   2.088  0.00  0.00    -0.271 OA
BRANCH 105 107
ATOM    107  CA  ASP A  10      -3.779 -10.479   1.281  0.00  0.00     0.186 C 
BRANCH 107 108
ATOM    108  N   ASP A  10      -4.050 -11.324   0.123  0.00  0.00    -0.346 N 
ATOM    109  C   GLY A   9      -5.291 -11.697  -0.200  0.00  0.00     0.236 C 
ATOM    110  O   GLY A   9      -6.277 -11.356   0.450  0.00  0.00    -0.272 OA
ATOM    111  H03 ASP A  10      -3.278 -11.635  -0.450  0.00  0.00     0.163 HD
BRANCH 109 112
ATOM    112  CA  GLY A   9      -5.456 -12.581  -1.432  0.00  0.00     0.225 C 
BRANCH 112 113
ATOM    113  N   GLY A   9      -4.675 -12.000  -2.517  0.00  0.00    -0.351 N 
ATOM    114  C   ARG A   8      -4.967 -10.802  -3.030  0.00  0.00     0.240 C 
ATOM    115  O   ARG A   8      -5.904 -10.117  -2.625  0.00  0.00    -0.271 OA
ATOM    116  H14 GLY A   9      -3.892 -12.517  -2.891  0.00  0.00     0.163 HD
BRANCH 114 117
ATOM    117  CA  ARG A   8      -4.082 -10.292  -4.163  0.00  0.00     0.176 C 
BRANCH 117 118
ATOM    118  CB  ARG A   8      -4.475 -10.956  -5.482  1.00  0.00     0.036 C 
BRANCH 118 119
ATOM    119  CG  ARG A   8      -3.750 -10.399  -6.696  1.00  0.00     0.023 C 
BRANCH 119 120
ATOM    120  CD  ARG A   8      -4.175  -8.968  -6.985  1.00  0.00     0.138 C 
BRANCH 120 121
ATOM    121  NE  ARG A   8      -5.581  -8.883  -7.368  1.00  0.00    -0.227 N 
ATOM    122  H08 ARG A   8      -6.071  -9.745  -7.562  1.00  0.00     0.177 HD
ATOM    123  CZ  ARG A   8      -6.258  -7.744  -7.478  1.00  0.00     0.665 C 
ATOM    124  NH2 ARG A   8      -7.535  -7.763  -7.833  1.00  0.00    -0.235 N 
ATOM    125  NH1 ARG A   8      -5.656  -6.589  -7.229  1.00  0.00    -0.235 N 
ATOM    126  H11 ARG A   8      -7.994  -8.643  -8.021  1.00  0.00     0.174 HD
ATOM    127  H13 ARG A   8      -8.049  -6.898  -7.915  1.00  0.00     0.174 HD
ATOM    128  H09 ARG A   8      -6.170  -5.724  -7.311  1.00  0.00     0.174 HD
ATOM    129  H10 ARG A   8      -4.683  -6.575  -6.957  1.00  0.00     0.174 HD
ENDBRANCH 120 121
ENDBRANCH 119 120
ENDBRANCH 118 119
ENDBRANCH 117 118
BRANCH 117 130
ATOM    130  N   ARG A   8      -2.675 -10.533  -3.864  0.00  0.00    -0.346 N 
ATOM    131  H12 ARG A   8      -2.112 -11.046  -4.528  0.00  0.00     0.163 HD
ATOM    132  C   LEU A   7      -2.111 -10.094  -2.737  0.00  0.00     0.241 C 
ATOM    133  O   LEU A   7      -2.734  -9.463  -1.884  0.00  0.00    -0.271 OA
BRANCH 132 134
ATOM    134  CA  LEU A   7      -0.632 -10.403  -2.529  0.00  0.00     0.177 C 
BRANCH 134 135
ATOM    135  CB  LEU A   7       0.242  -9.480  -3.361  1.00 59.00     0.038 C 
BRANCH 135 136
ATOM    136  CG  LEU A   7       0.370  -8.040  -2.858  1.00 59.00    -0.020 C 
ATOM    137  CD2 LEU A   7      -0.945  -7.295  -3.021  1.00 59.00     0.009 C 
ATOM    138  CD1 LEU A   7       1.440  -7.292  -3.638  1.00 59.00     0.009 C 
ENDBRANCH 135 136
ENDBRANCH 134 135
BRANCH 134 139
ATOM    139  N   LEU A   7      -0.411 -11.803  -2.875  0.00  0.00    -0.346 N 
ATOM    140  H06 LEU A   7       0.087 -12.027  -3.725  0.00  0.00     0.163 HD
ATOM    141  C   ASN A   6      -0.849 -12.796  -2.098  0.00  0.00     0.241 C 
ATOM    142  O   ASN A   6      -1.460 -12.600  -1.050  0.00  0.00    -0.271 OA
BRANCH 141 143
ATOM    143  CA  ASN A   6      -0.561 -14.222  -2.558  0.00  0.00     0.185 C 
BRANCH 143 144
ATOM    144  CB  ASN A   6       0.886 -14.597  -2.224  1.00  0.00     0.137 C 
BRANCH 144 145
ATOM    145  CG  ASN A   6       1.092 -16.095  -2.122  1.00  0.00     0.217 C 
ATOM    146  ND2 ASN A   6       0.367 -16.848  -2.940  1.00  0.00    -0.370 N 
ATOM    147  H04 ASN A   6       0.461 -17.853  -2.917  1.00  0.00     0.159 HD
ATOM    148  H05 ASN A   6      -0.279 -16.416  -3.585  1.00  0.00     0.159 HD
ATOM    149  OD1 ASN A   6       1.894 -16.567  -1.316  1.00  0.00    -0.274 OA
ENDBRANCH 144 145
ENDBRANCH 143 144
BRANCH 143 150
ATOM    150  N   ASN A   6      -0.812 -14.389  -3.985  0.00  0.00    -0.346 N 
ATOM    151  C   PRO A   5      -1.998 -14.101  -4.528  0.00  0.00     0.241 C 
ATOM    152  O   PRO A   5      -2.946 -13.681  -3.868  0.00  0.00    -0.271 OA
ATOM    153  H07 ASN A   6      -0.070 -14.731  -4.578  0.00  0.00     0.163 HD
BRANCH 151 154
ATOM    154  CA  PRO A   5      -2.148 -14.315  -6.031  0.00  0.00     0.179 C 
ATOM    155  CB  PRO A   5      -2.288 -15.785  -6.406  1.00 50.00     0.037 C 
ATOM    156  CG  PRO A   5      -1.539 -15.911  -7.714  1.00 50.00     0.022 C 
ATOM    157  CD  PRO A   5      -0.371 -14.959  -7.530  1.00 50.00     0.127 C 
ATOM    158  N   PRO A   5      -0.925 -13.903  -6.710  0.00  0.00    -0.337 N 
ATOM    159  C   VAL A   4      -0.511 -12.633  -6.703  0.00  0.00     0.243 C 
ATOM    160  O   VAL A   4      -1.127 -11.737  -6.130  0.00  0.00    -0.271 OA
BRANCH 159 161
ATOM    161  CA  VAL A   4       0.783 -12.317  -7.446  0.00  0.00     0.180 C 
BRANCH 161 162
ATOM    162  CB  VAL A   4       0.584 -12.449  -8.951  1.00 73.00     0.009 C 
ATOM    163  CG1 VAL A   4      -0.546 -11.541  -9.413  1.00 73.00     0.012 C 
ATOM    164  CG2 VAL A   4       1.848 -12.064  -9.704  1.00 73.00     0.012 C 
ENDBRANCH 161 162
BRANCH 161 165
ATOM    165  N   VAL A   4       1.790 -13.233  -6.923  0.00  0.00    -0.346 N 
ATOM    166  H03 VAL A   4       2.168 -13.947  -7.529  0.00  0.00     0.163 HD
ATOM    167  C   GLY A   3       2.225 -13.152  -5.663  0.00  0.00     0.236 C 
ATOM    168  O   GLY A   3       1.810 -12.311  -4.869  0.00  0.00    -0.272 OA
BRANCH 167 169
ATOM    169  CA  GLY A   3       3.281 -14.162  -5.224  0.00  0.00     0.225 C 
BRANCH 169 170
ATOM    170  N   GLY A   3       3.276 -15.357  -6.060  0.00  0.00    -0.351 N 
ATOM    171  C   ASN A   2       2.252 -16.214  -6.055  0.00  0.00     0.241 C 
ATOM    172  O   ASN A   2       1.256 -16.055  -5.352  0.00  0.00    -0.271 OA
ATOM    173  H07 GLY A   3       4.068 -15.541  -6.659  0.00  0.00     0.163 HD
BRANCH 171 174
ATOM    174  CA  ASN A   2       2.355 -17.429  -6.970  0.00  0.00     0.185 C 
BRANCH 174 175
ATOM    175  N   ASN A   2       3.428 -17.278  -7.946  0.00  0.00    -0.346 N 
ATOM    176  C   GLY A   1       3.471 -16.242  -8.788  0.00  0.00     0.246 C 
ATOM    177  O   GLY A   1       2.618 -15.357  -8.796  0.00  0.00    -0.272 OA
ATOM    178  H05 ASN A   2       4.158 -17.975  -7.986  0.00  0.00     0.163 HD
BRANCH 176 179
ATOM    179  CA  GLY A   1       4.640 -16.186  -9.766  0.00  0.00     0.368 C 
BRANCH 179 180
ATOM    180  N   GLY A   1       4.348 -16.637 -11.122  0.00  0.00     0.087 N 
ATOM    181  H01 GLY A   1       5.174 -16.539 -11.695  0.00  0.00     0.313 HD
ATOM    182  H02 GLY A   1       4.064 -17.606 -11.101  0.00  0.00     0.313 HD
ENDBRANCH 179 180
ENDBRANCH 176 179
ENDBRANCH 174 175
BRANCH 174 183
ATOM    183  CB  ASN A   2       2.568 -18.696  -6.136  1.00  0.00     0.137 C 
BRANCH 183 184
ATOM    184  CG  ASN A   2       1.386 -19.010  -5.240  1.00  0.00     0.217 C 
ATOM    185  ND2 ASN A   2       0.227 -19.228  -5.848  1.00  0.00    -0.370 N 
ATOM    186  H04 ASN A   2      -0.597 -19.441  -5.304  1.00  0.00     0.159 HD
ATOM    187  H06 ASN A   2       0.168 -19.181  -6.855  1.00  0.00     0.159 HD
ATOM    188  OD1 ASN A   2       1.516 -19.054  -4.017  1.00  0.00    -0.274 OA
ENDBRANCH 183 184
ENDBRANCH 174 183
ENDBRANCH 171 174
ENDBRANCH 169 170
ENDBRANCH 167 169
ENDBRANCH 161 165
ENDBRANCH 159 161
ENDBRANCH 151 154
ENDBRANCH 143 150
ENDBRANCH 141 143
ENDBRANCH 134 139
ENDBRANCH 132 134
ENDBRANCH 117 130
ENDBRANCH 114 117
ENDBRANCH 112 113
ENDBRANCH 109 112
ENDBRANCH 107 108
BRANCH 107 189
ATOM    189  CB  ASP A  10      -2.272 -10.353   1.513  1.00 51.00     0.147 C 
BRANCH 189 190
ATOM    190  CG  ASP A  10      -1.939  -9.614   2.793  1.00 51.00     0.175 C 
ATOM    191  OD1 ASP A  10      -2.373 -10.069   3.873  1.00 51.00    -0.648 OA
ATOM    192  OD2 ASP A  10      -1.244  -8.580   2.719  1.00 51.00    -0.648 OA
ENDBRANCH 189 190
ENDBRANCH 107 189
ENDBRANCH 105 107
ENDBRANCH 102 103
BRANCH 102 193
ATOM    193  CB  LEU A  11      -4.673  -6.854  -1.838  1.00 59.00     0.038 C 
BRANCH 193 194
ATOM    194  CG  LEU A  11      -4.881  -5.376  -2.176  1.00 59.00    -0.020 C 
ATOM    195  CD2 LEU A  11      -6.362  -5.035  -2.203  1.00 59.00     0.009 C 
ATOM    196  CD1 LEU A  11      -4.293  -5.049  -3.540  1.00 59.00     0.009 C 
ENDBRANCH 193 194
ENDBRANCH 102 193
ENDBRANCH   1 102
TORSDOF 68
