REMARK WARNING: 32 MAX_TORS EXCEEDED!!!
REMARK  76 active torsions:
REMARK  status: ('A' for Active; 'I' for Inactive)
REMARK    1  A    between atoms: N_1  and  CA_2 
REMARK    2  A    between atoms: CA_2  and  C_3 
REMARK       I    between atoms: C_3  and  N_7 
REMARK    3  A    between atoms: N_7  and  CA_8 
REMARK    4  A    between atoms: CA_8  and  CB_11 
REMARK    5  A    between atoms: CA_8  and  C_9 
REMARK       I    between atoms: C_9  and  N_18 
REMARK    6  A    between atoms: CB_11  and  CG_12 
REMARK       I    between atoms: CG_12  and  ND2_13 
REMARK    7  A    between atoms: N_18  and  CA_19 
REMARK    8  A    between atoms: CA_19  and  C_20 
REMARK       I    between atoms: C_20  and  N_23 
REMARK    9  A    between atoms: N_23  and  CA_24 
REMARK   10  A    between atoms: CA_24  and  CB_27 
REMARK   11  A    between atoms: CA_24  and  C_25 
REMARK       I    between atoms: C_25  and  N_31 
REMARK   12  A    between atoms: CA_32  and  C_33 
REMARK       I    between atoms: C_33  and  N_38 
REMARK   13  A    between atoms: N_38  and  CA_39 
REMARK   14  A    between atoms: CA_39  and  CB_42 
REMARK   15  A    between atoms: CA_39  and  C_40 
REMARK       I    between atoms: C_40  and  N_49 
REMARK   16  A    between atoms: CB_42  and  CG_43 
REMARK       I    between atoms: CG_43  and  ND2_44 
REMARK   17  A    between atoms: N_49  and  CA_50 
REMARK   18  A    between atoms: CA_50  and  C_51 
REMARK   19  A    between atoms: CA_50  and  CB_53 
REMARK       I    between atoms: C_51  and  N_58 
REMARK   20  A    between atoms: CB_53  and  CG_54 
REMARK   21  A    between atoms: N_58  and  CA_59 
REMARK   22  A    between atoms: CA_59  and  C_60 
REMARK   23  A    between atoms: CA_59  and  CB_62 
REMARK       I    between atoms: C_60  and  N_75 
REMARK   24  A    between atoms: CB_62  and  CG_63 
REMARK   25  A    between atoms: CG_63  and  CD_64 
REMARK   26  A    between atoms: CD_64  and  NE_65 
REMARK       I    between atoms: NE_65  and  CZ_66 
REMARK       I    between atoms: CZ_66  and  NH2_68 
REMARK       I    between atoms: CZ_66  and  NH1_67 
REMARK   27  A    between atoms: N_75  and  CA_76 
REMARK   28  A    between atoms: CA_76  and  C_77 
REMARK       I    between atoms: C_77  and  N_80 
REMARK   29  A    between atoms: N_80  and  CA_81 
REMARK   30  A    between atoms: CA_81  and  CB_84 
REMARK   31  A    between atoms: CA_81  and  C_82 
REMARK       I    between atoms: C_82  and  N_89 
REMARK   32  A    between atoms: CB_84  and  CG_85 
REMARK   33  A    between atoms: N_89  and  CA_90 
REMARK   34  A    between atoms: CA_90  and  C_91 
REMARK   35  A    between atoms: CA_90  and  CB_93 
REMARK       I    between atoms: C_91  and  N_98 
REMARK   36  A    between atoms: CB_93  and  CG_94 
REMARK   37  A    between atoms: N_98  and  CA_99 
REMARK   38  A    between atoms: CA_99  and  CB_102 
REMARK   39  A    between atoms: CA_99  and  C_100 
REMARK       I    between atoms: C_100  and  N_110 
REMARK   40  A    between atoms: CB_102  and  CG_103 
REMARK   41  A    between atoms: CG_103  and  CD_104 
REMARK       I    between atoms: CD_104  and  NE2_105 
REMARK   42  A    between atoms: N_110  and  CA_111 
REMARK   43  A    between atoms: CA_111  and  C_112 
REMARK   44  A    between atoms: CA_111  and  CB_114 
REMARK       I    between atoms: C_112  and  N_118 
REMARK   45  A    between atoms: N_118  and  CA_119 
REMARK   46  A    between atoms: CA_119  and  C_120 
REMARK   47  A    between atoms: CA_119  and  CB_122 
REMARK       I    between atoms: C_120  and  N_127 
REMARK   48  A    between atoms: CB_122  and  CG_123 
REMARK   49  A    between atoms: N_127  and  CA_128 
REMARK   50  A    between atoms: CA_128  and  C_129 
REMARK       I    between atoms: C_129  and  N_132 
REMARK   51  A    between atoms: N_132  and  CA_133 
REMARK   52  A    between atoms: CA_133  and  CB_136 
REMARK   53  A    between atoms: CA_133  and  C_134 
REMARK       I    between atoms: C_134  and  N_144 
REMARK   54  A    between atoms: CB_136  and  CG_137 
REMARK   55  A    between atoms: CG_137  and  CD_138 
REMARK       I    between atoms: CD_138  and  NE2_139 
REMARK   56  A    between atoms: N_144  and  CA_145 
REMARK   57  A    between atoms: CA_145  and  C_146 
REMARK   58  A    between atoms: CA_145  and  CB_148 
REMARK       I    between atoms: C_146  and  N_161 
REMARK   59  A    between atoms: CB_148  and  CG_149 
REMARK   60  A    between atoms: CG_149  and  CD_150 
REMARK   61  A    between atoms: CD_150  and  NE_151 
REMARK       I    between atoms: NE_151  and  CZ_152 
REMARK       I    between atoms: CZ_152  and  NH1_153 
REMARK   62  A    between atoms: N_161  and  CA_162 
REMARK   63  A    between atoms: CA_162  and  C_163 
REMARK   64  A    between atoms: CA_162  and  CB_165 
REMARK       I    between atoms: C_163  and  N_169 
REMARK   65  A    between atoms: N_169  and  CA_170 
REMARK   66  A    between atoms: CA_170  and  C_171 
REMARK       I    between atoms: C_171  and  N_174 
REMARK   67  A    between atoms: N_174  and  CA_175 
REMARK   68  A    between atoms: CA_175  and  CB_178 
REMARK   69  A    between atoms: CA_175  and  C_176 
REMARK       I    between atoms: C_176  and  N_191 
REMARK   70  A    between atoms: CB_178  and  CG_179 
REMARK   71  A    between atoms: CG_179  and  CD_180 
REMARK   72  A    between atoms: CD_180  and  NE_181 
REMARK       I    between atoms: NE_181  and  CZ_182 
REMARK       I    between atoms: CZ_182  and  NH1_183 
REMARK   73  A    between atoms: N_191  and  CA_192 
REMARK   74  A    between atoms: CA_192  and  CB_195 
REMARK   75  A    between atoms: CA_192  and  C_193 
REMARK   76  A    between atoms: CB_195  and  OG1_197 
ROOT
ATOM      1  CA  GLN A  12       0.124  -7.734  -3.507  0.00  0.00     0.177 C 
ENDROOT
BRANCH   1   2
ATOM      2  CB  GLN A  12      -0.636  -9.047  -3.483  1.00 35.00     0.044 C 
BRANCH   2   3
ATOM      3  CG  GLN A  12      -1.054  -9.541  -4.859  1.00 35.00     0.105 C 
BRANCH   3   4
ATOM      4  CD  GLN A  12      -1.753 -10.885  -4.807  1.00 35.00     0.215 C 
ATOM      5  OE1 GLN A  12      -1.948 -11.454  -3.733  1.00 35.00    -0.274 OA
ATOM      6  NE2 GLN A  12      -2.134 -11.397  -5.973  1.00 35.00    -0.370 N 
ATOM      7  H06 GLN A  12      -2.605 -12.290  -6.003  1.00 35.00     0.159 HD
ATOM      8  H07 GLN A  12      -1.953 -10.893  -6.829  1.00 35.00     0.159 HD
ENDBRANCH   3   4
ENDBRANCH   2   3
ENDBRANCH   1   2
BRANCH   1   9
ATOM      9  C   GLN A  12      -0.741  -6.605  -4.059  0.00  0.00     0.241 C 
ATOM     10  N   VAL A  13      -1.711  -6.137  -3.270  0.00  0.00    -0.346 N 
ATOM     11  H08 VAL A  13      -1.836  -6.540  -2.352  0.00  0.00     0.163 HD
ATOM     12  O   GLN A  12      -0.531  -6.165  -5.187  0.00  0.00    -0.271 OA
BRANCH  10  13
ATOM     13  CA  VAL A  13      -2.595  -5.059  -3.699  0.00  0.00     0.180 C 
BRANCH  13  14
ATOM     14  C   VAL A  13      -1.697  -3.878  -4.049  0.00  0.00     0.241 C 
ATOM     15  O   VAL A  13      -1.889  -3.244  -5.085  0.00  0.00    -0.271 OA
ATOM     16  N   LEU A  14      -0.717  -3.579  -3.192  0.00  0.00    -0.346 N 
ATOM     17  H10 LEU A  14      -0.608  -4.136  -2.357  0.00  0.00     0.163 HD
BRANCH  16  18
ATOM     18  CA  LEU A  14       0.199  -2.470  -3.430  0.00  0.00     0.177 C 
BRANCH  18  19
ATOM     19  C   LEU A  14       0.913  -2.712  -4.756  0.00  0.00     0.240 C 
ATOM     20  N   GLY A  15       1.412  -3.932  -4.967  0.00  0.00    -0.351 N 
ATOM     21  H12 GLY A  15       1.301  -4.639  -4.254  0.00  0.00     0.163 HD
ATOM     22  O   LEU A  14       1.009  -1.803  -5.578  0.00  0.00    -0.271 OA
BRANCH  20  23
ATOM     23  CA  GLY A  15       2.113  -4.271  -6.201  0.00  0.00     0.225 C 
BRANCH  23  24
ATOM     24  C   GLY A  15       1.247  -3.969  -7.420  0.00  0.00     0.236 C 
ATOM     25  N   GLN A  16      -0.010  -4.420  -7.403  0.00  0.00    -0.346 N 
ATOM     26  H03 GLN A  16      -0.337  -4.936  -6.598  0.00  0.00     0.163 HD
ATOM     27  O   GLY A  15       1.713  -3.334  -8.363  0.00  0.00    -0.272 OA
BRANCH  25  28
ATOM     28  CA  GLN A  16      -0.923  -4.187  -8.517  0.00  0.00     0.177 C 
BRANCH  28  29
ATOM     29  CB  GLN A  16      -2.270  -4.860  -8.265  1.00 35.00     0.044 C 
BRANCH  29  30
ATOM     30  CG  GLN A  16      -3.045  -4.282  -7.092  1.00 35.00     0.105 C 
BRANCH  30  31
ATOM     31  CD  GLN A  16      -4.343  -5.022  -6.832  1.00 35.00     0.215 C 
ATOM     32  OE1 GLN A  16      -4.348  -6.092  -6.225  1.00 35.00    -0.274 OA
ATOM     33  NE2 GLN A  16      -5.450  -4.449  -7.292  1.00 35.00    -0.370 N 
ATOM     34  H08 GLN A  16      -5.396  -3.569  -7.784  1.00 35.00     0.159 HD
ATOM     35  H07 GLN A  16      -6.346  -4.894  -7.149  1.00 35.00     0.159 HD
ENDBRANCH  30  31
ENDBRANCH  29  30
ENDBRANCH  28  29
BRANCH  28  36
ATOM     36  C   GLN A  16      -1.109  -2.689  -8.739  0.00  0.00     0.241 C 
ATOM     37  N   ARG A  17      -1.298  -1.930  -7.657  0.00  0.00    -0.346 N 
ATOM     38  H09 ARG A  17      -1.310  -2.367  -6.746  0.00  0.00     0.163 HD
ATOM     39  O   GLN A  16      -1.082  -2.228  -9.878  0.00  0.00    -0.271 OA
BRANCH  37  40
ATOM     40  CA  ARG A  17      -1.487  -0.488  -7.755  0.00  0.00     0.176 C 
BRANCH  40  41
ATOM     41  C   ARG A  17      -0.256   0.181  -8.359  0.00  0.00     0.241 C 
ATOM     42  N   VAL A  18       0.911  -0.016  -7.741  0.00  0.00    -0.346 N 
ATOM     43  H14 VAL A  18       0.937  -0.590  -6.910  0.00  0.00     0.163 HD
ATOM     44  O   ARG A  17      -0.364   0.867  -9.373  0.00  0.00    -0.271 OA
BRANCH  42  45
ATOM     45  CA  VAL A  18       2.149   0.576  -8.234  0.00  0.00     0.180 C 
BRANCH  45  46
ATOM     46  C   VAL A  18       2.417   0.308  -9.711  0.00  0.00     0.241 C 
ATOM     47  N   GLY A  19       2.232  -0.939 -10.150  0.00  0.00    -0.351 N 
ATOM     48  H09 GLY A  19       1.926  -1.649  -9.500  0.00  0.00     0.163 HD
ATOM     49  O   VAL A  18       2.787   1.222 -10.445  0.00  0.00    -0.271 OA
BRANCH  47  50
ATOM     50  CA  GLY A  19       2.460  -1.304 -11.544  0.00  0.00     0.225 C 
BRANCH  50  51
ATOM     51  C   GLY A  19       1.434  -0.629 -12.448  0.00  0.00     0.236 C 
ATOM     52  N   ARG A  20       0.160  -0.650 -12.049  0.00  0.00    -0.346 N 
ATOM     53  H03 ARG A  20      -0.075  -1.104 -11.178  0.00  0.00     0.163 HD
ATOM     54  O   GLY A  19       1.793  -0.096 -13.496  0.00  0.00    -0.272 OA
BRANCH  52  55
ATOM     55  CA  ARG A  20      -0.902  -0.035 -12.838  0.00  0.00     0.176 C 
BRANCH  55  56
ATOM     56  CB  ARG A  20      -2.267  -0.358 -12.192  1.00  0.00     0.036 C 
BRANCH  56  57
ATOM     57  CG  ARG A  20      -3.465   0.052 -13.033  1.00  0.00     0.023 C 
BRANCH  57  58
ATOM     58  CD  ARG A  20      -3.835   1.507 -12.794  1.00  0.00     0.138 C 
BRANCH  58  59
ATOM     59  NE  ARG A  20      -5.065   1.879 -13.485  1.00  0.00    -0.227 N 
ATOM     60  H09 ARG A  20      -4.984   2.321 -14.390  1.00  0.00     0.177 HD
ATOM     61  CZ  ARG A  20      -6.286   1.674 -13.000  1.00  0.00     0.665 C 
ATOM     62  NH1 ARG A  20      -6.440   1.095 -11.817  1.00  0.00    -0.235 N 
ATOM     63  NH2 ARG A  20      -7.349   2.046 -13.700  1.00  0.00    -0.235 N 
ATOM     64  H11 ARG A  20      -5.630   0.811 -11.285  1.00  0.00     0.174 HD
ATOM     65  H10 ARG A  20      -7.367   0.938 -11.448  1.00  0.00     0.174 HD
ATOM     66  H12 ARG A  20      -7.231   2.486 -14.601  1.00  0.00     0.174 HD
ATOM     67  H13 ARG A  20      -8.276   1.889 -13.332  1.00  0.00     0.174 HD
ENDBRANCH  58  59
ENDBRANCH  57  58
ENDBRANCH  56  57
ENDBRANCH  55  56
BRANCH  55  68
ATOM     68  C   ARG A  20      -0.789   1.476 -13.020  0.00  0.00     0.241 C 
ATOM     69  O   ARG A  20      -1.081   1.989 -14.098  0.00  0.00    -0.271 OA
ATOM     70  N   THR A  21      -0.368   2.188 -11.972  0.00  0.00    -0.346 N 
ATOM     71  H14 THR A  21      -0.143   1.710 -11.111  0.00  0.00     0.163 HD
BRANCH  70  72
ATOM     72  CA  THR A  21      -0.225   3.638 -12.038  0.00  0.00     0.174 C 
BRANCH  72  73
ATOM     73  CB  THR A  21      -1.471   4.383 -11.582  1.00 49.00     0.143 C 
ATOM     74  CG2 THR A  21      -2.653   4.013 -12.465  1.00 49.00     0.042 C 
BRANCH  73  75
ATOM     75  OG1 THR A  21      -1.781   4.042 -10.225  1.00 49.00    -0.393 OA
ATOM     76  H07 THR A  21      -1.655   4.811  -9.664  1.00 49.00     0.210 HD
ENDBRANCH  73  75
ENDBRANCH  72  73
BRANCH  72  77
ATOM     77  C   THR A  21       0.966   3.979 -11.147  0.00  0.00     0.258 C 
ATOM     78  O   THR A  21       1.054   3.491 -10.023  0.00  0.00    -0.305 OA
ENDBRANCH  72  77
ENDBRANCH  70  72
ENDBRANCH  55  68
ENDBRANCH  52  55
ENDBRANCH  50  51
ENDBRANCH  47  50
ENDBRANCH  45  46
BRANCH  45  79
ATOM     79  CB  VAL A  18       3.363   0.062  -7.419  1.00 73.00     0.009 C 
ATOM     80  CG1 VAL A  18       3.561  -1.431  -7.638  1.00 73.00     0.012 C 
ATOM     81  CG2 VAL A  18       4.635   0.782  -7.839  1.00 73.00     0.012 C 
ENDBRANCH  45  79
ENDBRANCH  42  45
ENDBRANCH  40  41
BRANCH  40  82
ATOM     82  CB  ARG A  17      -1.792   0.109  -6.381  1.00  0.00     0.036 C 
BRANCH  82  83
ATOM     83  CG  ARG A  17      -3.092  -0.382  -5.767  1.00  0.00     0.023 C 
BRANCH  83  84
ATOM     84  CD  ARG A  17      -4.297   0.122  -6.545  1.00  0.00     0.138 C 
BRANCH  84  85
ATOM     85  NE  ARG A  17      -4.424   1.574  -6.476  1.00  0.00    -0.227 N 
ATOM     86  H08 ARG A  17      -3.839   2.069  -5.818  1.00  0.00     0.177 HD
ATOM     87  CZ  ARG A  17      -5.260   2.288  -7.224  1.00  0.00     0.665 C 
ATOM     88  NH1 ARG A  17      -6.045   1.681  -8.103  1.00  0.00    -0.235 N 
ATOM     89  NH2 ARG A  17      -5.307   3.606  -7.092  1.00  0.00    -0.235 N 
ATOM     90  H11 ARG A  17      -6.008   0.677  -8.204  1.00  0.00     0.174 HD
ATOM     91  H10 ARG A  17      -6.680   2.223  -8.672  1.00  0.00     0.174 HD
ATOM     92  H13 ARG A  17      -5.942   4.148  -7.661  1.00  0.00     0.174 HD
ATOM     93  H12 ARG A  17      -4.708   4.068  -6.423  1.00  0.00     0.174 HD
ENDBRANCH  84  85
ENDBRANCH  83  84
ENDBRANCH  82  83
ENDBRANCH  40  82
ENDBRANCH  37  40
ENDBRANCH  28  36
ENDBRANCH  25  28
ENDBRANCH  23  24
ENDBRANCH  20  23
ENDBRANCH  18  19
BRANCH  18  94
ATOM     94  CB  LEU A  14       1.198  -2.322  -2.293  1.00 59.00     0.038 C 
BRANCH  94  95
ATOM     95  CG  LEU A  14       2.052  -1.053  -2.308  1.00 59.00    -0.020 C 
ATOM     96  CD1 LEU A  14       3.105  -1.127  -3.403  1.00 59.00     0.009 C 
ATOM     97  CD2 LEU A  14       1.188   0.172  -2.561  1.00 59.00     0.009 C 
ENDBRANCH  94  95
ENDBRANCH  18  94
ENDBRANCH  16  18
ENDBRANCH  13  14
BRANCH  13  98
ATOM     98  CB  VAL A  13      -3.609  -4.663  -2.633  1.00 73.00     0.009 C 
ATOM     99  CG1 VAL A  13      -4.429  -3.472  -3.105  1.00 73.00     0.012 C 
ATOM    100  CG2 VAL A  13      -4.560  -5.812  -2.333  1.00 73.00     0.012 C 
ENDBRANCH  13  98
ENDBRANCH  10  13
ENDBRANCH   1   9
BRANCH   1 101
ATOM    101  N   GLN A  12       0.561  -7.342  -2.172  0.00  0.00    -0.346 N 
ATOM    102  C   LEU A  11       1.182  -6.181  -1.950  0.00  0.00     0.241 C 
ATOM    103  O   LEU A  11       1.423  -5.374  -2.845  0.00  0.00    -0.271 OA
ATOM    104  H12 GLN A  12       0.390  -7.965  -1.395  0.00  0.00     0.163 HD
BRANCH 102 105
ATOM    105  CA  LEU A  11       1.595  -5.874  -0.514  0.00  0.00     0.177 C 
BRANCH 105 106
ATOM    106  N   LEU A  11       0.524  -6.257   0.399  0.00  0.00    -0.346 N 
ATOM    107  H05 LEU A  11       0.693  -6.987   1.076  0.00  0.00     0.163 HD
ATOM    108  C   ASP A  10      -0.673  -5.668   0.364  0.00  0.00     0.241 C 
ATOM    109  O   ASP A  10      -0.950  -4.773  -0.432  0.00  0.00    -0.271 OA
BRANCH 108 110
ATOM    110  CA  ASP A  10      -1.718  -6.149   1.365  0.00  0.00     0.186 C 
BRANCH 110 111
ATOM    111  CB  ASP A  10      -1.386  -5.657   2.768  1.00 51.00     0.147 C 
BRANCH 111 112
ATOM    112  CG  ASP A  10      -2.548  -5.820   3.729  1.00 51.00     0.175 C 
ATOM    113  OD1 ASP A  10      -3.675  -6.086   3.259  1.00 51.00    -0.648 OA
ATOM    114  OD2 ASP A  10      -2.332  -5.683   4.950  1.00 51.00    -0.648 OA
ENDBRANCH 111 112
ENDBRANCH 110 111
BRANCH 110 115
ATOM    115  N   ASP A  10      -1.791  -7.605   1.323  0.00  0.00    -0.346 N 
ATOM    116  H03 ASP A  10      -1.617  -8.131   2.168  0.00  0.00     0.163 HD
ATOM    117  C   GLY A   9      -2.082  -8.261   0.197  0.00  0.00     0.236 C 
ATOM    118  O   GLY A   9      -2.306  -7.688  -0.867  0.00  0.00    -0.272 OA
BRANCH 117 119
ATOM    119  CA  GLY A   9      -2.132  -9.784   0.269  0.00  0.00     0.225 C 
BRANCH 119 120
ATOM    120  N   GLY A   9      -0.937 -10.359   0.876  0.00  0.00    -0.351 N 
ATOM    121  H14 GLY A   9      -1.037 -10.973   1.672  0.00  0.00     0.163 HD
ATOM    122  C   ARG A   8       0.286 -10.095   0.407  0.00  0.00     0.240 C 
ATOM    123  O   ARG A   8       0.483  -9.358  -0.556  0.00  0.00    -0.271 OA
BRANCH 122 124
ATOM    124  CA  ARG A   8       1.463 -10.751   1.120  0.00  0.00     0.176 C 
BRANCH 124 125
ATOM    125  N   ARG A   8       1.336 -10.473   2.546  0.00  0.00    -0.346 N 
ATOM    126  H12 ARG A   8       1.221 -11.243   3.189  0.00  0.00     0.163 HD
ATOM    127  C   LEU A   7       1.368  -9.227   3.024  0.00  0.00     0.241 C 
ATOM    128  O   LEU A   7       1.505  -8.241   2.302  0.00  0.00    -0.271 OA
BRANCH 127 129
ATOM    129  CA  LEU A   7       1.225  -9.054   4.533  0.00  0.00     0.177 C 
BRANCH 129 130
ATOM    130  N   LEU A   7       0.213  -9.989   5.013  0.00  0.00    -0.346 N 
ATOM    131  C   ASN A   6      -1.070  -9.875   4.662  0.00  0.00     0.241 C 
ATOM    132  O   ASN A   6      -1.480  -8.985   3.920  0.00  0.00    -0.271 OA
ATOM    133  H06 LEU A   7       0.490 -10.742   5.627  0.00  0.00     0.163 HD
BRANCH 131 134
ATOM    134  CA  ASN A   6      -2.041 -10.909   5.224  0.00  0.00     0.185 C 
BRANCH 134 135
ATOM    135  N   ASN A   6      -1.384 -12.207   5.119  0.00  0.00    -0.346 N 
ATOM    136  C   PRO A   5      -1.004 -12.709   3.942  0.00  0.00     0.241 C 
ATOM    137  O   PRO A   5      -1.178 -12.117   2.879  0.00  0.00    -0.271 OA
ATOM    138  H07 ASN A   6      -1.212 -12.740   5.959  0.00  0.00     0.163 HD
BRANCH 136 139
ATOM    139  CA  PRO A   5      -0.326 -14.076   3.952  0.00  0.00     0.179 C 
ATOM    140  CB  PRO A   5      -1.270 -15.237   4.088  1.00 50.00     0.037 C 
ATOM    141  CG  PRO A   5      -1.484 -15.397   5.576  1.00 50.00     0.022 C 
ATOM    142  CD  PRO A   5      -0.133 -15.019   6.157  1.00 50.00     0.127 C 
ATOM    143  N   PRO A   5       0.442 -14.053   5.192  0.00  0.00    -0.337 N 
ATOM    144  C   VAL A   4       1.463 -13.211   5.370  0.00  0.00     0.243 C 
ATOM    145  O   VAL A   4       1.820 -12.409   4.510  0.00  0.00    -0.271 OA
BRANCH 144 146
ATOM    146  CA  VAL A   4       2.195 -13.274   6.706  0.00  0.00     0.180 C 
BRANCH 146 147
ATOM    147  CB  VAL A   4       1.644 -12.161   7.625  1.00 73.00     0.009 C 
ATOM    148  CG2 VAL A   4       0.159 -12.369   7.883  1.00 73.00     0.012 C 
ATOM    149  CG1 VAL A   4       1.834 -10.795   6.984  1.00 73.00     0.012 C 
ENDBRANCH 146 147
BRANCH 146 150
ATOM    150  N   VAL A   4       3.642 -13.162   6.557  0.00  0.00    -0.346 N 
ATOM    151  H03 VAL A   4       4.140 -12.467   7.095  0.00  0.00     0.163 HD
ATOM    152  C   GLY A   3       4.325 -13.955   5.728  0.00  0.00     0.236 C 
ATOM    153  O   GLY A   3       3.787 -14.823   5.043  0.00  0.00    -0.272 OA
BRANCH 152 154
ATOM    154  CA  GLY A   3       5.835 -13.749   5.651  0.00  0.00     0.225 C 
BRANCH 154 155
ATOM    155  N   GLY A   3       6.640 -14.852   5.139  0.00  0.00    -0.351 N 
ATOM    156  C   ASN A   2       6.780 -15.993   5.819  0.00  0.00     0.241 C 
ATOM    157  O   ASN A   2       6.247 -16.187   6.909  0.00  0.00    -0.271 OA
ATOM    158  H07 GLY A   3       7.103 -14.750   4.247  0.00  0.00     0.163 HD
BRANCH 156 159
ATOM    159  CA  ASN A   2       7.646 -17.079   5.187  0.00  0.00     0.185 C 
BRANCH 159 160
ATOM    160  CB  ASN A   2       6.776 -18.027   4.357  1.00  0.00     0.137 C 
BRANCH 160 161
ATOM    161  CG  ASN A   2       5.765 -18.777   5.201  1.00  0.00     0.217 C 
ATOM    162  OD1 ASN A   2       5.739 -20.008   5.208  1.00  0.00    -0.274 OA
ATOM    163  ND2 ASN A   2       4.928 -18.037   5.917  1.00  0.00    -0.370 N 
ATOM    164  H06 ASN A   2       4.987 -17.029   5.880  1.00  0.00     0.159 HD
ATOM    165  H04 ASN A   2       4.232 -18.481   6.499  1.00  0.00     0.159 HD
ENDBRANCH 160 161
ENDBRANCH 159 160
BRANCH 159 166
ATOM    166  N   ASN A   2       8.389 -17.823   6.198  0.00  0.00    -0.346 N 
ATOM    167  H05 ASN A   2       8.067 -18.741   6.469  0.00  0.00     0.163 HD
ATOM    168  C   GLY A   1       9.484 -17.322   6.774  0.00  0.00     0.246 C 
ATOM    169  O   GLY A   1       9.934 -16.213   6.495  0.00  0.00    -0.272 OA
BRANCH 168 170
ATOM    170  CA  GLY A   1      10.182 -18.188   7.818  0.00  0.00     0.368 C 
BRANCH 170 171
ATOM    171  N   GLY A   1      11.439 -18.663   7.251  0.00  0.00     0.087 N 
ATOM    172  H02 GLY A   1      11.690 -18.089   6.459  0.00  0.00     0.313 HD
ATOM    173  H01 GLY A   1      11.333 -19.622   6.952  0.00  0.00     0.313 HD
ENDBRANCH 170 171
ENDBRANCH 168 170
ENDBRANCH 159 166
ENDBRANCH 156 159
ENDBRANCH 154 155
ENDBRANCH 152 154
ENDBRANCH 146 150
ENDBRANCH 144 146
ENDBRANCH 136 139
ENDBRANCH 134 135
BRANCH 134 174
ATOM    174  CB  ASN A   6      -2.427 -10.587   6.653  1.00  0.00     0.137 C 
BRANCH 174 175
ATOM    175  CG  ASN A   6      -3.500  -9.518   6.730  1.00  0.00     0.217 C 
ATOM    176  OD1 ASN A   6      -3.316  -8.405   6.239  1.00  0.00    -0.274 OA
ATOM    177  ND2 ASN A   6      -4.625  -9.855   7.348  1.00  0.00    -0.370 N 
ATOM    178  H05 ASN A   6      -4.730 -10.782   7.736  1.00  0.00     0.159 HD
ATOM    179  H04 ASN A   6      -5.376  -9.185   7.431  1.00  0.00     0.159 HD
ENDBRANCH 174 175
ENDBRANCH 134 174
ENDBRANCH 131 134
ENDBRANCH 129 130
BRANCH 129 180
ATOM    180  CB  LEU A   7       2.557  -9.273   5.234  1.00 59.00     0.038 C 
BRANCH 180 181
ATOM    181  CG  LEU A   7       3.694  -8.335   4.825  1.00 59.00    -0.020 C 
ATOM    182  CD1 LEU A   7       3.355  -6.894   5.175  1.00 59.00     0.009 C 
ATOM    183  CD2 LEU A   7       4.982  -8.707   5.544  1.00 59.00     0.009 C 
ENDBRANCH 180 181
ENDBRANCH 129 180
ENDBRANCH 127 129
ENDBRANCH 124 125
BRANCH 124 184
ATOM    184  CB  ARG A   8       1.506 -12.244   0.845  1.00  0.00     0.036 C 
BRANCH 184 185
ATOM    185  CG  ARG A   8       1.621 -12.596  -0.628  1.00  0.00     0.023 C 
BRANCH 185 186
ATOM    186  CD  ARG A   8       2.956 -12.148  -1.201  1.00  0.00     0.138 C 
BRANCH 186 187
ATOM    187  NE  ARG A   8       3.070 -12.449  -2.624  1.00  0.00    -0.227 N 
ATOM    188  H08 ARG A   8       3.526 -13.310  -2.890  1.00  0.00     0.177 HD
ATOM    189  CZ  ARG A   8       2.611 -11.662  -3.593  1.00  0.00     0.665 C 
ATOM    190  NH2 ARG A   8       2.760 -12.018  -4.861  1.00  0.00    -0.235 N 
ATOM    191  NH1 ARG A   8       2.002 -10.524  -3.290  1.00  0.00    -0.235 N 
ATOM    192  H11 ARG A   8       3.223 -12.886  -5.091  1.00  0.00     0.174 HD
ATOM    193  H13 ARG A   8       2.411 -11.422  -5.597  1.00  0.00     0.174 HD
ATOM    194  H09 ARG A   8       1.652  -9.927  -4.026  1.00  0.00     0.174 HD
ATOM    195  H10 ARG A   8       1.888 -10.254  -2.323  1.00  0.00     0.174 HD
ENDBRANCH 186 187
ENDBRANCH 185 186
ENDBRANCH 184 185
ENDBRANCH 124 184
ENDBRANCH 122 124
ENDBRANCH 119 120
ENDBRANCH 117 119
ENDBRANCH 110 115
ENDBRANCH 108 110
ENDBRANCH 105 106
BRANCH 105 196
ATOM    196  CB  LEU A  11       2.893  -6.594  -0.164  1.00 59.00     0.038 C 
BRANCH 196 197
ATOM    197  CG  LEU A  11       3.716  -5.986   0.973  1.00 59.00    -0.020 C 
ATOM    198  CD2 LEU A  11       2.958  -6.070   2.289  1.00 59.00     0.009 C 
ATOM    199  CD1 LEU A  11       4.021  -4.522   0.694  1.00 59.00     0.009 C 
ENDBRANCH 196 197
ENDBRANCH 105 196
ENDBRANCH 102 105
ENDBRANCH   1 101
TORSDOF 76
