REMARK WARNING: 32 MAX_TORS EXCEEDED!!!
REMARK  76 active torsions:
REMARK  status: ('A' for Active; 'I' for Inactive)
REMARK    1  A    between atoms: N_1  and  CA_2 
REMARK    2  A    between atoms: CA_2  and  C_3 
REMARK       I    between atoms: C_3  and  N_7 
REMARK    3  A    between atoms: N_7  and  CA_8 
REMARK    4  A    between atoms: CA_8  and  CB_11 
REMARK    5  A    between atoms: CA_8  and  C_9 
REMARK       I    between atoms: C_9  and  N_18 
REMARK    6  A    between atoms: CB_11  and  CG_12 
REMARK       I    between atoms: CG_12  and  ND2_13 
REMARK    7  A    between atoms: N_18  and  CA_19 
REMARK    8  A    between atoms: CA_19  and  C_20 
REMARK       I    between atoms: C_20  and  N_23 
REMARK    9  A    between atoms: N_23  and  CA_24 
REMARK   10  A    between atoms: CA_24  and  CB_27 
REMARK   11  A    between atoms: CA_24  and  C_25 
REMARK       I    between atoms: C_25  and  N_31 
REMARK   12  A    between atoms: CA_32  and  C_33 
REMARK       I    between atoms: C_33  and  N_38 
REMARK   13  A    between atoms: N_38  and  CA_39 
REMARK   14  A    between atoms: CA_39  and  CB_42 
REMARK   15  A    between atoms: CA_39  and  C_40 
REMARK       I    between atoms: C_40  and  N_49 
REMARK   16  A    between atoms: CB_42  and  CG_43 
REMARK       I    between atoms: CG_43  and  ND2_44 
REMARK   17  A    between atoms: N_49  and  CA_50 
REMARK   18  A    between atoms: CA_50  and  CB_53 
REMARK   19  A    between atoms: CA_50  and  C_51 
REMARK       I    between atoms: C_51  and  N_58 
REMARK   20  A    between atoms: CB_53  and  CG_54 
REMARK   21  A    between atoms: N_58  and  CA_59 
REMARK   22  A    between atoms: CA_59  and  CB_62 
REMARK   23  A    between atoms: CA_59  and  C_60 
REMARK       I    between atoms: C_60  and  N_75 
REMARK   24  A    between atoms: CB_62  and  CG_63 
REMARK   25  A    between atoms: CG_63  and  CD_64 
REMARK   26  A    between atoms: CD_64  and  NE_65 
REMARK       I    between atoms: NE_65  and  CZ_66 
REMARK       I    between atoms: CZ_66  and  NH2_68 
REMARK       I    between atoms: CZ_66  and  NH1_67 
REMARK   27  A    between atoms: N_75  and  CA_76 
REMARK   28  A    between atoms: CA_76  and  C_77 
REMARK       I    between atoms: C_77  and  N_80 
REMARK   29  A    between atoms: N_80  and  CA_81 
REMARK   30  A    between atoms: CA_81  and  CB_84 
REMARK   31  A    between atoms: CA_81  and  C_82 
REMARK       I    between atoms: C_82  and  N_89 
REMARK   32  A    between atoms: CB_84  and  CG_85 
REMARK   33  A    between atoms: N_89  and  CA_90 
REMARK   34  A    between atoms: CA_90  and  CB_93 
REMARK   35  A    between atoms: CA_90  and  C_91 
REMARK       I    between atoms: C_91  and  N_98 
REMARK   36  A    between atoms: CB_93  and  CG_94 
REMARK   37  A    between atoms: N_98  and  CA_99 
REMARK   38  A    between atoms: CA_99  and  CB_102 
REMARK   39  A    between atoms: CA_99  and  C_100 
REMARK       I    between atoms: C_100  and  N_110 
REMARK   40  A    between atoms: CB_102  and  CG_103 
REMARK   41  A    between atoms: CG_103  and  CD_104 
REMARK       I    between atoms: CD_104  and  NE2_105 
REMARK   42  A    between atoms: N_110  and  CA_111 
REMARK   43  A    between atoms: CA_111  and  CB_114 
REMARK   44  A    between atoms: CA_111  and  C_112 
REMARK       I    between atoms: C_112  and  N_118 
REMARK   45  A    between atoms: N_118  and  CA_119 
REMARK   46  A    between atoms: CA_119  and  C_120 
REMARK   47  A    between atoms: CA_119  and  CB_122 
REMARK       I    between atoms: C_120  and  N_127 
REMARK   48  A    between atoms: CB_122  and  CG_123 
REMARK   49  A    between atoms: N_127  and  CA_128 
REMARK   50  A    between atoms: CA_128  and  C_129 
REMARK       I    between atoms: C_129  and  N_132 
REMARK   51  A    between atoms: N_132  and  CA_133 
REMARK   52  A    between atoms: CA_133  and  CB_136 
REMARK   53  A    between atoms: CA_133  and  C_134 
REMARK       I    between atoms: C_134  and  N_144 
REMARK   54  A    between atoms: CB_136  and  CG_137 
REMARK   55  A    between atoms: CG_137  and  CD_138 
REMARK       I    between atoms: CD_138  and  NE2_139 
REMARK   56  A    between atoms: N_144  and  CA_145 
REMARK   57  A    between atoms: CA_145  and  C_146 
REMARK   58  A    between atoms: CA_145  and  CB_148 
REMARK       I    between atoms: C_146  and  N_161 
REMARK   59  A    between atoms: CB_148  and  CG_149 
REMARK   60  A    between atoms: CG_149  and  CD_150 
REMARK   61  A    between atoms: CD_150  and  NE_151 
REMARK       I    between atoms: NE_151  and  CZ_152 
REMARK       I    between atoms: CZ_152  and  NH2_154 
REMARK       I    between atoms: CZ_152  and  NH1_153 
REMARK   62  A    between atoms: N_161  and  CA_162 
REMARK   63  A    between atoms: CA_162  and  CB_165 
REMARK   64  A    between atoms: CA_162  and  C_163 
REMARK       I    between atoms: C_163  and  N_169 
REMARK   65  A    between atoms: N_169  and  CA_170 
REMARK   66  A    between atoms: CA_170  and  C_171 
REMARK       I    between atoms: C_171  and  N_174 
REMARK   67  A    between atoms: N_174  and  CA_175 
REMARK   68  A    between atoms: CA_175  and  C_176 
REMARK   69  A    between atoms: CA_175  and  CB_178 
REMARK       I    between atoms: C_176  and  N_191 
REMARK   70  A    between atoms: CB_178  and  CG_179 
REMARK   71  A    between atoms: CG_179  and  CD_180 
REMARK   72  A    between atoms: CD_180  and  NE_181 
REMARK       I    between atoms: NE_181  and  CZ_182 
REMARK       I    between atoms: CZ_182  and  NH1_183 
REMARK   73  A    between atoms: N_191  and  CA_192 
REMARK   74  A    between atoms: CA_192  and  C_193 
REMARK   75  A    between atoms: CA_192  and  CB_195 
REMARK   76  A    between atoms: CB_195  and  OG1_197 
ROOT
ATOM      1  CA  GLN A  12      -2.934  -9.889   3.513  0.00  0.00     0.177 C 
ENDROOT
BRANCH   1   2
ATOM      2  N   GLN A  12      -2.772 -10.441   2.173  0.00  0.00    -0.346 N 
ATOM      3  C   LEU A  11      -3.320  -9.860   1.103  0.00  0.00     0.241 C 
ATOM      4  O   LEU A  11      -3.990  -8.832   1.175  0.00  0.00    -0.271 OA
ATOM      5  H12 GLN A  12      -2.231 -11.285   2.051  0.00  0.00     0.163 HD
BRANCH   3   6
ATOM      6  CA  LEU A  11      -3.085 -10.525  -0.250  0.00  0.00     0.177 C 
BRANCH   6   7
ATOM      7  N   LEU A  11      -1.691 -10.905  -0.447  0.00  0.00    -0.346 N 
ATOM      8  H05 LEU A  11      -1.457 -11.882  -0.548  0.00  0.00     0.163 HD
ATOM      9  C   ASP A  10      -0.715  -9.995  -0.497  0.00  0.00     0.241 C 
ATOM     10  O   ASP A  10      -0.924  -8.789  -0.381  0.00  0.00    -0.271 OA
BRANCH   9  11
ATOM     11  CA  ASP A  10       0.707 -10.506  -0.708  0.00  0.00     0.186 C 
BRANCH  11  12
ATOM     12  N   ASP A  10       0.905 -11.681   0.134  0.00  0.00    -0.346 N 
ATOM     13  H03 ASP A  10       1.125 -12.566  -0.300  0.00  0.00     0.163 HD
ATOM     14  C   GLY A   9       0.803 -11.617   1.464  0.00  0.00     0.236 C 
ATOM     15  O   GLY A   9       0.538 -10.575   2.061  0.00  0.00    -0.272 OA
BRANCH  14  16
ATOM     16  CA  GLY A   9       1.030 -12.908   2.244  0.00  0.00     0.225 C 
BRANCH  16  17
ATOM     17  N   GLY A   9       0.340 -14.003   1.572  0.00  0.00    -0.351 N 
ATOM     18  C   ARG A   8      -0.990 -14.028   1.454  0.00  0.00     0.240 C 
ATOM     19  O   ARG A   8      -1.713 -13.140   1.900  0.00  0.00    -0.271 OA
ATOM     20  H14 GLY A   9       0.882 -14.762   1.186  0.00  0.00     0.163 HD
BRANCH  18  21
ATOM     21  CA  ARG A   8      -1.604 -15.222   0.732  0.00  0.00     0.176 C 
BRANCH  21  22
ATOM     22  N   ARG A   8      -0.858 -15.449  -0.501  0.00  0.00    -0.346 N 
ATOM     23  C   LEU A   7      -0.694 -14.484  -1.410  0.00  0.00     0.241 C 
ATOM     24  O   LEU A   7      -1.156 -13.354  -1.270  0.00  0.00    -0.271 OA
ATOM     25  H12 ARG A   8      -0.455 -16.359  -0.672  0.00  0.00     0.163 HD
BRANCH  23  26
ATOM     26  CA  LEU A   7       0.105 -14.834  -2.662  0.00  0.00     0.177 C 
BRANCH  26  27
ATOM     27  N   LEU A   7       1.344 -15.548  -2.378  0.00  0.00    -0.346 N 
ATOM     28  H06 LEU A   7       1.463 -16.486  -2.733  0.00  0.00     0.163 HD
ATOM     29  C   ASN A   6       2.325 -14.995  -1.661  0.00  0.00     0.241 C 
ATOM     30  O   ASN A   6       2.250 -13.859  -1.197  0.00  0.00    -0.271 OA
BRANCH  29  31
ATOM     31  CA  ASN A   6       3.577 -15.834  -1.427  0.00  0.00     0.185 C 
BRANCH  31  32
ATOM     32  CB  ASN A   6       4.414 -15.941  -2.686  1.00  0.00     0.137 C 
BRANCH  32  33
ATOM     33  CG  ASN A   6       5.830 -16.400  -2.400  1.00  0.00     0.217 C 
ATOM     34  OD1 ASN A   6       6.049 -17.307  -1.598  1.00  0.00    -0.274 OA
ATOM     35  ND2 ASN A   6       6.798 -15.773  -3.058  1.00  0.00    -0.370 N 
ATOM     36  H05 ASN A   6       6.570 -15.034  -3.707  1.00  0.00     0.159 HD
ATOM     37  H04 ASN A   6       7.762 -16.035  -2.909  1.00  0.00     0.159 HD
ENDBRANCH  32  33
ENDBRANCH  31  32
BRANCH  31  38
ATOM     38  N   ASN A   6       3.133 -17.142  -0.959  0.00  0.00    -0.346 N 
ATOM     39  C   PRO A   5       2.474 -17.290   0.193  0.00  0.00     0.241 C 
ATOM     40  O   PRO A   5       2.201 -16.344   0.928  0.00  0.00    -0.271 OA
ATOM     41  H07 ASN A   6       3.329 -17.958  -1.521  0.00  0.00     0.163 HD
BRANCH  39  42
ATOM     42  CA  PRO A   5       2.058 -18.705   0.582  0.00  0.00     0.179 C 
ATOM     43  CB  PRO A   5       3.246 -19.567   1.005  1.00 50.00     0.037 C 
ATOM     44  CG  PRO A   5       2.901 -20.949   0.498  1.00 50.00     0.022 C 
ATOM     45  CD  PRO A   5       2.198 -20.664  -0.816  1.00 50.00     0.127 C 
ATOM     46  N   PRO A   5       1.517 -19.422  -0.567  0.00  0.00    -0.337 N 
ATOM     47  C   VAL A   4       0.510 -18.929  -1.293  0.00  0.00     0.243 C 
ATOM     48  O   VAL A   4      -0.022 -17.850  -1.043  0.00  0.00    -0.271 OA
BRANCH  47  49
ATOM     49  CA  VAL A   4       0.026 -19.765  -2.473  0.00  0.00     0.180 C 
BRANCH  49  50
ATOM     50  CB  VAL A   4      -0.552 -21.092  -1.941  1.00 73.00     0.009 C 
ATOM     51  CG2 VAL A   4      -1.219 -21.869  -3.066  1.00 73.00     0.012 C 
ATOM     52  CG1 VAL A   4      -1.588 -20.829  -0.859  1.00 73.00     0.012 C 
ENDBRANCH  49  50
BRANCH  49  53
ATOM     53  N   VAL A   4       1.089 -20.001  -3.442  0.00  0.00    -0.346 N 
ATOM     54  H03 VAL A   4       1.326 -20.951  -3.690  0.00  0.00     0.163 HD
ATOM     55  C   GLY A   3       1.758 -18.994  -4.010  0.00  0.00     0.236 C 
ATOM     56  O   GLY A   3       1.524 -17.815  -3.756  0.00  0.00    -0.272 OA
BRANCH  55  57
ATOM     57  CA  GLY A   3       2.851 -19.358  -5.010  0.00  0.00     0.225 C 
BRANCH  57  58
ATOM     58  N   GLY A   3       2.829 -18.411  -6.119  0.00  0.00    -0.351 N 
ATOM     59  C   ASN A   2       1.822 -18.380  -6.996  0.00  0.00     0.241 C 
ATOM     60  O   ASN A   2       0.858 -19.140  -6.928  0.00  0.00    -0.271 OA
ATOM     61  H07 GLY A   3       3.595 -17.762  -6.227  0.00  0.00     0.163 HD
BRANCH  59  62
ATOM     62  CA  ASN A   2       1.905 -17.348  -8.116  0.00  0.00     0.185 C 
BRANCH  62  63
ATOM     63  CB  ASN A   2       2.754 -17.890  -9.268  1.00  0.00     0.137 C 
BRANCH  63  64
ATOM     64  CG  ASN A   2       4.232 -17.922  -8.938  1.00  0.00     0.217 C 
ATOM     65  ND2 ASN A   2       5.015 -17.125  -9.654  1.00  0.00    -0.370 N 
ATOM     66  H04 ASN A   2       6.009 -17.104  -9.479  1.00  0.00     0.159 HD
ATOM     67  H06 ASN A   2       4.616 -16.540 -10.374  1.00  0.00     0.159 HD
ATOM     68  OD1 ASN A   2       4.664 -18.656  -8.049  1.00  0.00    -0.274 OA
ENDBRANCH  63  64
ENDBRANCH  62  63
BRANCH  62  69
ATOM     69  N   ASN A   2       2.449 -16.085  -7.633  0.00  0.00    -0.346 N 
ATOM     70  C   GLY A   1       1.785 -15.321  -6.762  0.00  0.00     0.246 C 
ATOM     71  O   GLY A   1       0.683 -15.630  -6.313  0.00  0.00    -0.272 OA
ATOM     72  H05 ASN A   2       3.352 -15.779  -7.966  0.00  0.00     0.163 HD
BRANCH  70  73
ATOM     73  CA  GLY A   1       2.451 -14.020  -6.325  0.00  0.00     0.368 C 
BRANCH  73  74
ATOM     74  N   GLY A   1       2.943 -13.309  -7.499  0.00  0.00     0.087 N 
ATOM     75  H01 GLY A   1       2.350 -13.514  -8.291  0.00  0.00     0.313 HD
ATOM     76  H02 GLY A   1       2.934 -12.315  -7.320  0.00  0.00     0.313 HD
ENDBRANCH  73  74
ENDBRANCH  70  73
ENDBRANCH  62  69
ENDBRANCH  59  62
ENDBRANCH  57  58
ENDBRANCH  55  57
ENDBRANCH  49  53
ENDBRANCH  47  49
ENDBRANCH  39  42
ENDBRANCH  31  38
ENDBRANCH  29  31
ENDBRANCH  26  27
BRANCH  26  77
ATOM     77  CB  LEU A   7      -0.771 -15.668  -3.611  1.00 59.00     0.038 C 
BRANCH  77  78
ATOM     78  CG  LEU A   7      -2.108 -15.049  -4.026  1.00 59.00    -0.020 C 
ATOM     79  CD2 LEU A   7      -2.896 -16.010  -4.902  1.00 59.00     0.009 C 
ATOM     80  CD1 LEU A   7      -1.884 -13.765  -4.811  1.00 59.00     0.009 C 
ENDBRANCH  77  78
ENDBRANCH  26  77
ENDBRANCH  23  26
ENDBRANCH  21  22
BRANCH  21  81
ATOM     81  CB  ARG A   8      -1.596 -16.457   1.619  1.00  0.00     0.036 C 
BRANCH  81  82
ATOM     82  CG  ARG A   8      -0.225 -16.838   2.152  1.00  0.00     0.023 C 
BRANCH  82  83
ATOM     83  CD  ARG A   8      -0.298 -18.079   3.028  1.00  0.00     0.138 C 
BRANCH  83  84
ATOM     84  NE  ARG A   8       1.018 -18.486   3.510  1.00  0.00    -0.227 N 
ATOM     85  CZ  ARG A   8       1.597 -17.998   4.602  1.00  0.00     0.665 C 
ATOM     86  NH2 ARG A   8       2.797 -18.429   4.964  1.00  0.00    -0.235 N 
ATOM     87  NH1 ARG A   8       0.976 -17.079   5.328  1.00  0.00    -0.235 N 
ATOM     88  H13 ARG A   8       3.238 -18.058   5.793  1.00  0.00     0.174 HD
ATOM     89  H11 ARG A   8       3.271 -19.129   4.410  1.00  0.00     0.174 HD
ATOM     90  H10 ARG A   8       0.062 -16.750   5.052  1.00  0.00     0.174 HD
ATOM     91  H09 ARG A   8       1.417 -16.708   6.157  1.00  0.00     0.174 HD
ATOM     92  H08 ARG A   8       1.521 -19.183   2.980  1.00  0.00     0.177 HD
ENDBRANCH  83  84
ENDBRANCH  82  83
ENDBRANCH  81  82
ENDBRANCH  21  81
ENDBRANCH  18  21
ENDBRANCH  16  17
ENDBRANCH  14  16
ENDBRANCH  11  12
BRANCH  11  93
ATOM     93  CB  ASP A  10       0.958 -10.826  -2.173  1.00 51.00     0.147 C 
BRANCH  93  94
ATOM     94  CG  ASP A  10       2.429 -11.032  -2.478  1.00 51.00     0.175 C 
ATOM     95  OD2 ASP A  10       2.744 -11.532  -3.577  1.00 51.00    -0.648 OA
ATOM     96  OD1 ASP A  10       3.268 -10.693  -1.615  1.00 51.00    -0.648 OA
ENDBRANCH  93  94
ENDBRANCH  11  93
ENDBRANCH   9  11
ENDBRANCH   6   7
BRANCH   6  97
ATOM     97  CB  LEU A  11      -3.992 -11.754  -0.388  1.00 59.00     0.038 C 
BRANCH  97  98
ATOM     98  CG  LEU A  11      -4.037 -12.415  -1.767  1.00 59.00    -0.020 C 
ATOM     99  CD1 LEU A  11      -4.863 -13.692  -1.724  1.00 59.00     0.009 C 
ATOM    100  CD2 LEU A  11      -4.661 -11.480  -2.790  1.00 59.00     0.009 C 
ENDBRANCH  97  98
ENDBRANCH   6  97
ENDBRANCH   3   6
ENDBRANCH   1   2
BRANCH   1 101
ATOM    101  CB  GLN A  12      -2.292 -10.802   4.556  1.00 35.00     0.044 C 
BRANCH 101 102
ATOM    102  CG  GLN A  12      -2.967 -12.157   4.692  1.00 35.00     0.105 C 
BRANCH 102 103
ATOM    103  CD  GLN A  12      -2.320 -13.025   5.753  1.00 35.00     0.215 C 
ATOM    104  NE2 GLN A  12      -1.553 -14.018   5.316  1.00 35.00    -0.370 N 
ATOM    105  H06 GLN A  12      -1.095 -14.630   5.976  1.00 35.00     0.159 HD
ATOM    106  H07 GLN A  12      -1.428 -14.160   4.324  1.00 35.00     0.159 HD
ATOM    107  OE1 GLN A  12      -2.508 -12.805   6.949  1.00 35.00    -0.274 OA
ENDBRANCH 102 103
ENDBRANCH 101 102
ENDBRANCH   1 101
BRANCH   1 108
ATOM    108  C   GLN A  12      -2.330  -8.490   3.588  0.00  0.00     0.241 C 
ATOM    109  O   GLN A  12      -2.888  -7.612   4.243  0.00  0.00    -0.271 OA
ATOM    110  N   VAL A  13      -1.192  -8.280   2.921  0.00  0.00    -0.346 N 
ATOM    111  H08 VAL A  13      -0.779  -9.040   2.400  0.00  0.00     0.163 HD
BRANCH 110 112
ATOM    112  CA  VAL A  13      -0.530  -6.980   2.926  0.00  0.00     0.180 C 
BRANCH 112 113
ATOM    113  CB  VAL A  13       0.858  -7.041   2.273  1.00 73.00     0.009 C 
ATOM    114  CG1 VAL A  13       1.474  -5.652   2.205  1.00 73.00     0.012 C 
ATOM    115  CG2 VAL A  13       1.788  -7.941   3.072  1.00 73.00     0.012 C 
ENDBRANCH 112 113
BRANCH 112 116
ATOM    116  C   VAL A  13      -1.395  -5.959   2.194  0.00  0.00     0.241 C 
ATOM    117  N   LEU A  14      -1.785  -6.265   0.955  0.00  0.00    -0.346 N 
ATOM    118  H10 LEU A  14      -1.499  -7.146   0.553  0.00  0.00     0.163 HD
ATOM    119  O   VAL A  13      -1.705  -4.906   2.748  0.00  0.00    -0.271 OA
BRANCH 117 120
ATOM    120  CA  LEU A  14      -2.614  -5.360   0.166  0.00  0.00     0.177 C 
BRANCH 120 121
ATOM    121  C   LEU A  14      -3.915  -5.117   0.923  0.00  0.00     0.240 C 
ATOM    122  N   GLY A  15      -4.461  -6.161   1.552  0.00  0.00    -0.351 N 
ATOM    123  H12 GLY A  15      -4.001  -7.059   1.505  0.00  0.00     0.163 HD
ATOM    124  O   LEU A  14      -4.419  -3.995   0.937  0.00  0.00    -0.271 OA
BRANCH 122 125
ATOM    125  CA  GLY A  15      -5.704  -6.039   2.305  0.00  0.00     0.225 C 
BRANCH 125 126
ATOM    126  C   GLY A  15      -5.622  -4.958   3.379  0.00  0.00     0.236 C 
ATOM    127  N   GLN A  16      -4.638  -5.062   4.276  0.00  0.00    -0.346 N 
ATOM    128  H03 GLN A  16      -3.995  -5.838   4.213  0.00  0.00     0.163 HD
ATOM    129  O   GLY A  15      -6.440  -4.041   3.393  0.00  0.00    -0.272 OA
BRANCH 127 130
ATOM    130  CA  GLN A  16      -4.468  -4.084   5.344  0.00  0.00     0.177 C 
BRANCH 130 131
ATOM    131  CB  GLN A  16      -3.390  -4.545   6.327  1.00 35.00     0.044 C 
BRANCH 131 132
ATOM    132  CG  GLN A  16      -3.211  -3.629   7.527  1.00 35.00     0.105 C 
BRANCH 132 133
ATOM    133  CD  GLN A  16      -4.431  -3.604   8.426  1.00 35.00     0.215 C 
ATOM    134  OE1 GLN A  16      -5.010  -4.646   8.734  1.00 35.00    -0.274 OA
ATOM    135  NE2 GLN A  16      -4.826  -2.409   8.852  1.00 35.00    -0.370 N 
ATOM    136  H07 GLN A  16      -5.633  -2.329   9.454  1.00 35.00     0.159 HD
ATOM    137  H08 GLN A  16      -4.319  -1.581   8.574  1.00 35.00     0.159 HD
ENDBRANCH 132 133
ENDBRANCH 131 132
ENDBRANCH 130 131
BRANCH 130 138
ATOM    138  C   GLN A  16      -4.113  -2.712   4.782  0.00  0.00     0.241 C 
ATOM    139  O   GLN A  16      -4.583  -1.697   5.292  0.00  0.00    -0.271 OA
ATOM    140  N   ARG A  17      -3.285  -2.676   3.735  0.00  0.00    -0.346 N 
ATOM    141  H09 ARG A  17      -2.930  -3.544   3.359  0.00  0.00     0.163 HD
BRANCH 140 142
ATOM    142  CA  ARG A  17      -2.880  -1.417   3.120  0.00  0.00     0.176 C 
BRANCH 142 143
ATOM    143  C   ARG A  17      -4.000  -0.669   2.405  0.00  0.00     0.241 C 
ATOM    144  N   VAL A  18      -4.711  -1.350   1.502  0.00  0.00    -0.346 N 
ATOM    145  H14 VAL A  18      -4.486  -2.319   1.328  0.00  0.00     0.163 HD
ATOM    146  O   ARG A  17      -4.217   0.512   2.668  0.00  0.00    -0.271 OA
BRANCH 144 147
ATOM    147  CA  VAL A  18      -5.804  -0.731   0.761  0.00  0.00     0.180 C 
BRANCH 147 148
ATOM    148  CB  VAL A  18      -6.356  -1.685  -0.320  1.00 73.00     0.009 C 
ATOM    149  CG2 VAL A  18      -5.291  -1.972  -1.367  1.00 73.00     0.012 C 
ATOM    150  CG1 VAL A  18      -7.559  -1.066  -1.016  1.00 73.00     0.012 C 
ENDBRANCH 147 148
BRANCH 147 151
ATOM    151  C   VAL A  18      -6.950  -0.307   1.675  0.00  0.00     0.241 C 
ATOM    152  N   GLY A  19      -7.187  -1.064   2.749  0.00  0.00    -0.351 N 
ATOM    153  H09 GLY A  19      -6.609  -1.876   2.916  0.00  0.00     0.163 HD
ATOM    154  O   VAL A  18      -7.612   0.693   1.408  0.00  0.00    -0.271 OA
BRANCH 152 155
ATOM    155  CA  GLY A  19      -8.258  -0.750   3.688  0.00  0.00     0.225 C 
BRANCH 155 156
ATOM    156  C   GLY A  19      -7.984   0.554   4.429  0.00  0.00     0.236 C 
ATOM    157  O   GLY A  19      -8.833   1.443   4.446  0.00  0.00    -0.272 OA
ATOM    158  N   ARG A  20      -6.803   0.672   5.041  0.00  0.00    -0.346 N 
ATOM    159  H03 ARG A  20      -6.145  -0.093   4.992  0.00  0.00     0.163 HD
BRANCH 158 160
ATOM    160  CA  ARG A  20      -6.438   1.877   5.778  0.00  0.00     0.176 C 
BRANCH 160 161
ATOM    161  C   ARG A  20      -6.176   3.015   4.798  0.00  0.00     0.241 C 
ATOM    162  N   THR A  21      -5.538   2.711   3.665  0.00  0.00    -0.346 N 
ATOM    163  H14 THR A  21      -5.257   1.755   3.500  0.00  0.00     0.163 HD
ATOM    164  O   ARG A  20      -6.547   4.156   5.065  0.00  0.00    -0.271 OA
BRANCH 162 165
ATOM    165  CA  THR A  21      -5.236   3.723   2.659  0.00  0.00     0.174 C 
BRANCH 165 166
ATOM    166  C   THR A  21      -5.733   3.222   1.306  0.00  0.00     0.258 C 
ATOM    167  O   THR A  21      -6.904   3.398   0.976  0.00  0.00    -0.305 OA
ENDBRANCH 165 166
BRANCH 165 168
ATOM    168  CB  THR A  21      -3.740   4.038   2.582  1.00 49.00     0.143 C 
ATOM    169  CG2 THR A  21      -2.946   2.799   2.198  1.00 49.00     0.042 C 
BRANCH 168 170
ATOM    170  OG1 THR A  21      -3.517   5.056   1.598  1.00 49.00    -0.393 OA
ATOM    171  H07 THR A  21      -3.671   5.919   1.989  1.00 49.00     0.210 HD
ENDBRANCH 168 170
ENDBRANCH 165 168
ENDBRANCH 162 165
ENDBRANCH 160 161
BRANCH 160 172
ATOM    172  CB  ARG A  20      -5.216   1.632   6.655  1.00  0.00     0.036 C 
BRANCH 172 173
ATOM    173  CG  ARG A  20      -3.941   1.336   5.882  1.00  0.00     0.023 C 
BRANCH 173 174
ATOM    174  CD  ARG A  20      -2.768   1.103   6.820  1.00  0.00     0.138 C 
BRANCH 174 175
ATOM    175  NE  ARG A  20      -1.546   0.770   6.095  1.00  0.00    -0.227 N 
ATOM    176  H09 ARG A  20      -1.325  -0.207   5.964  1.00  0.00     0.177 HD
ATOM    177  CZ  ARG A  20      -0.704   1.671   5.596  1.00  0.00     0.665 C 
ATOM    178  NH1 ARG A  20      -0.956   2.965   5.742  1.00  0.00    -0.235 N 
ATOM    179  NH2 ARG A  20       0.384   1.275   4.950  1.00  0.00    -0.235 N 
ATOM    180  H11 ARG A  20      -1.786   3.266   6.233  1.00  0.00     0.174 HD
ATOM    181  H10 ARG A  20      -0.318   3.650   5.362  1.00  0.00     0.174 HD
ATOM    182  H13 ARG A  20       1.023   1.959   4.570  1.00  0.00     0.174 HD
ATOM    183  H12 ARG A  20       0.574   0.289   4.838  1.00  0.00     0.174 HD
ENDBRANCH 174 175
ENDBRANCH 173 174
ENDBRANCH 172 173
ENDBRANCH 160 172
ENDBRANCH 158 160
ENDBRANCH 155 156
ENDBRANCH 152 155
ENDBRANCH 147 151
ENDBRANCH 144 147
ENDBRANCH 142 143
BRANCH 142 184
ATOM    184  CB  ARG A  17      -1.733  -1.679   2.122  1.00  0.00     0.036 C 
BRANCH 184 185
ATOM    185  CG  ARG A  17      -0.370  -1.860   2.768  1.00  0.00     0.023 C 
BRANCH 185 186
ATOM    186  CD  ARG A  17      -0.258  -3.211   3.455  1.00  0.00     0.138 C 
BRANCH 186 187
ATOM    187  NE  ARG A  17       1.042  -3.395   4.092  1.00  0.00    -0.227 N 
ATOM    188  H08 ARG A  17       1.759  -3.879   3.571  1.00  0.00     0.177 HD
ATOM    189  CZ  ARG A  17       1.343  -2.967   5.314  1.00  0.00     0.665 C 
ATOM    190  NH2 ARG A  17       2.552  -3.180   5.812  1.00  0.00    -0.235 N 
ATOM    191  NH1 ARG A  17       0.433  -2.324   6.033  1.00  0.00    -0.235 N 
ATOM    192  H12 ARG A  17       3.245  -3.669   5.264  1.00  0.00     0.174 HD
ATOM    193  H13 ARG A  17       2.781  -2.854   6.740  1.00  0.00     0.174 HD
ATOM    194  H11 ARG A  17      -0.488  -2.161   5.653  1.00  0.00     0.174 HD
ATOM    195  H10 ARG A  17       0.661  -1.997   6.961  1.00  0.00     0.174 HD
ENDBRANCH 186 187
ENDBRANCH 185 186
ENDBRANCH 184 185
ENDBRANCH 142 184
ENDBRANCH 140 142
ENDBRANCH 130 138
ENDBRANCH 127 130
ENDBRANCH 125 126
ENDBRANCH 122 125
ENDBRANCH 120 121
BRANCH 120 196
ATOM    196  CB  LEU A  14      -2.887  -5.924  -1.219  1.00 59.00     0.038 C 
BRANCH 196 197
ATOM    197  CG  LEU A  14      -3.430  -4.937  -2.254  1.00 59.00    -0.020 C 
ATOM    198  CD2 LEU A  14      -4.852  -4.524  -1.908  1.00 59.00     0.009 C 
ATOM    199  CD1 LEU A  14      -3.442  -5.564  -3.640  1.00 59.00     0.009 C 
ENDBRANCH 196 197
ENDBRANCH 120 196
ENDBRANCH 117 120
ENDBRANCH 112 116
ENDBRANCH 110 112
ENDBRANCH   1 108
TORSDOF 76
