REMARK WARNING: 32 MAX_TORS EXCEEDED!!!
REMARK  76 active torsions:
REMARK  status: ('A' for Active; 'I' for Inactive)
REMARK    1  A    between atoms: N_1  and  CA_2 
REMARK    2  A    between atoms: CA_2  and  C_3 
REMARK       I    between atoms: C_3  and  N_7 
REMARK    3  A    between atoms: N_7  and  CA_8 
REMARK    4  A    between atoms: CA_8  and  C_9 
REMARK    5  A    between atoms: CA_8  and  CB_11 
REMARK       I    between atoms: C_9  and  N_18 
REMARK    6  A    between atoms: CB_11  and  CG_12 
REMARK       I    between atoms: CG_12  and  ND2_13 
REMARK    7  A    between atoms: N_18  and  CA_19 
REMARK    8  A    between atoms: CA_19  and  C_20 
REMARK       I    between atoms: C_20  and  N_23 
REMARK    9  A    between atoms: N_23  and  CA_24 
REMARK   10  A    between atoms: CA_24  and  CB_27 
REMARK   11  A    between atoms: CA_24  and  C_25 
REMARK       I    between atoms: C_25  and  N_31 
REMARK   12  A    between atoms: CA_32  and  C_33 
REMARK       I    between atoms: C_33  and  N_38 
REMARK   13  A    between atoms: N_38  and  CA_39 
REMARK   14  A    between atoms: CA_39  and  C_40 
REMARK   15  A    between atoms: CA_39  and  CB_42 
REMARK       I    between atoms: C_40  and  N_49 
REMARK   16  A    between atoms: CB_42  and  CG_43 
REMARK       I    between atoms: CG_43  and  ND2_44 
REMARK   17  A    between atoms: N_49  and  CA_50 
REMARK   18  A    between atoms: CA_50  and  C_51 
REMARK   19  A    between atoms: CA_50  and  CB_53 
REMARK       I    between atoms: C_51  and  N_58 
REMARK   20  A    between atoms: CB_53  and  CG_54 
REMARK   21  A    between atoms: N_58  and  CA_59 
REMARK   22  A    between atoms: CA_59  and  CB_62 
REMARK   23  A    between atoms: CA_59  and  C_60 
REMARK       I    between atoms: C_60  and  N_75 
REMARK   24  A    between atoms: CB_62  and  CG_63 
REMARK   25  A    between atoms: CG_63  and  CD_64 
REMARK   26  A    between atoms: CD_64  and  NE_65 
REMARK       I    between atoms: NE_65  and  CZ_66 
REMARK       I    between atoms: CZ_66  and  NH1_67 
REMARK       I    between atoms: CZ_66  and  NH2_68 
REMARK   27  A    between atoms: N_75  and  CA_76 
REMARK   28  A    between atoms: CA_76  and  C_77 
REMARK       I    between atoms: C_77  and  N_80 
REMARK   29  A    between atoms: N_80  and  CA_81 
REMARK   30  A    between atoms: CA_81  and  C_82 
REMARK   31  A    between atoms: CA_81  and  CB_84 
REMARK       I    between atoms: C_82  and  N_89 
REMARK   32  A    between atoms: CB_84  and  CG_85 
REMARK   33  A    between atoms: N_89  and  CA_90 
REMARK   34  A    between atoms: CA_90  and  C_91 
REMARK   35  A    between atoms: CA_90  and  CB_93 
REMARK       I    between atoms: C_91  and  N_98 
REMARK   36  A    between atoms: CB_93  and  CG_94 
REMARK   37  A    between atoms: N_98  and  CA_99 
REMARK   38  A    between atoms: CA_99  and  CB_102 
REMARK   39  A    between atoms: CA_99  and  C_100 
REMARK       I    between atoms: C_100  and  N_110 
REMARK   40  A    between atoms: CB_102  and  CG_103 
REMARK   41  A    between atoms: CG_103  and  CD_104 
REMARK       I    between atoms: CD_104  and  NE2_105 
REMARK   42  A    between atoms: N_110  and  CA_111 
REMARK   43  A    between atoms: CA_111  and  C_112 
REMARK   44  A    between atoms: CA_111  and  CB_114 
REMARK       I    between atoms: C_112  and  N_118 
REMARK   45  A    between atoms: N_118  and  CA_119 
REMARK   46  A    between atoms: CA_119  and  C_120 
REMARK   47  A    between atoms: CA_119  and  CB_122 
REMARK       I    between atoms: C_120  and  N_127 
REMARK   48  A    between atoms: CB_122  and  CG_123 
REMARK   49  A    between atoms: N_127  and  CA_128 
REMARK   50  A    between atoms: CA_128  and  C_129 
REMARK       I    between atoms: C_129  and  N_132 
REMARK   51  A    between atoms: N_132  and  CA_133 
REMARK   52  A    between atoms: CA_133  and  C_134 
REMARK   53  A    between atoms: CA_133  and  CB_136 
REMARK       I    between atoms: C_134  and  N_144 
REMARK   54  A    between atoms: CB_136  and  CG_137 
REMARK   55  A    between atoms: CG_137  and  CD_138 
REMARK       I    between atoms: CD_138  and  NE2_139 
REMARK   56  A    between atoms: N_144  and  CA_145 
REMARK   57  A    between atoms: CA_145  and  C_146 
REMARK   58  A    between atoms: CA_145  and  CB_148 
REMARK       I    between atoms: C_146  and  N_161 
REMARK   59  A    between atoms: CB_148  and  CG_149 
REMARK   60  A    between atoms: CG_149  and  CD_150 
REMARK   61  A    between atoms: CD_150  and  NE_151 
REMARK       I    between atoms: NE_151  and  CZ_152 
REMARK       I    between atoms: CZ_152  and  NH2_154 
REMARK       I    between atoms: CZ_152  and  NH1_153 
REMARK   62  A    between atoms: N_161  and  CA_162 
REMARK   63  A    between atoms: CA_162  and  CB_165 
REMARK   64  A    between atoms: CA_162  and  C_163 
REMARK       I    between atoms: C_163  and  N_169 
REMARK   65  A    between atoms: N_169  and  CA_170 
REMARK   66  A    between atoms: CA_170  and  C_171 
REMARK       I    between atoms: C_171  and  N_174 
REMARK   67  A    between atoms: N_174  and  CA_175 
REMARK   68  A    between atoms: CA_175  and  CB_178 
REMARK   69  A    between atoms: CA_175  and  C_176 
REMARK       I    between atoms: C_176  and  N_191 
REMARK   70  A    between atoms: CB_178  and  CG_179 
REMARK   71  A    between atoms: CG_179  and  CD_180 
REMARK   72  A    between atoms: CD_180  and  NE_181 
REMARK       I    between atoms: NE_181  and  CZ_182 
REMARK       I    between atoms: CZ_182  and  NH1_183 
REMARK   73  A    between atoms: N_191  and  CA_192 
REMARK   74  A    between atoms: CA_192  and  C_193 
REMARK   75  A    between atoms: CA_192  and  CB_195 
REMARK   76  A    between atoms: CB_195  and  OG1_197 
ROOT
ATOM      1  CA  GLN A  11      -1.545  -8.558  -0.731  1.00 85.71     0.177 C 
ENDROOT
BRANCH   1   2
ATOM      2  N   GLN A  11      -0.474  -8.774   0.236  1.00 85.71    -0.346 N 
ATOM      3  H12 GLN A  11      -0.653  -8.619   1.218  1.00 85.71     0.163 HD
ATOM      4  C   LEU A  10       0.773  -9.184  -0.165  1.00 86.66     0.241 C 
ATOM      5  O   LEU A  10       1.102  -9.403  -1.333  1.00 86.66    -0.271 OA
BRANCH   4   6
ATOM      6  CA  LEU A  10       1.794  -9.304   0.961  1.00 86.66     0.177 C 
BRANCH   6   7
ATOM      7  N   LEU A  10       1.499  -8.361   2.034  1.00 86.66    -0.346 N 
ATOM      8  H05 LEU A  10       1.111  -8.693   2.905  1.00 86.66     0.163 HD
ATOM      9  C   ASP A   9       1.740  -7.070   1.867  1.00 86.32     0.241 C 
ATOM     10  O   ASP A   9       2.072  -6.578   0.787  1.00 86.32    -0.271 OA
BRANCH   9  11
ATOM     11  CA  ASP A   9       1.383  -6.173   3.050  1.00 86.32     0.186 C 
BRANCH  11  12
ATOM     12  N   ASP A   9       0.224  -6.691   3.771  1.00 86.32    -0.346 N 
ATOM     13  C   GLY A   8      -0.992  -6.570   3.262  1.00 86.07     0.236 C 
ATOM     14  O   GLY A   8      -1.223  -6.221   2.103  1.00 86.07    -0.272 OA
ATOM     15  H03 ASP A   9       0.351  -7.145   4.664  1.00 86.32     0.163 HD
BRANCH  13  16
ATOM     16  CA  GLY A   8      -2.114  -7.067   4.155  1.00 86.07     0.225 C 
BRANCH  16  17
ATOM     17  N   GLY A   8      -1.751  -8.243   4.929  1.00 86.07    -0.351 N 
ATOM     18  C   ARG A   7      -1.498  -9.408   4.262  1.00 82.43     0.240 C 
ATOM     19  O   ARG A   7      -1.501  -9.539   3.037  1.00 82.43    -0.271 OA
ATOM     20  H14 GLY A   8      -1.687  -8.200   5.936  1.00 86.07     0.163 HD
BRANCH  18  21
ATOM     21  CA  ARG A   7      -1.120 -10.579   5.164  1.00 82.43     0.176 C 
BRANCH  21  22
ATOM     22  N   ARG A   7      -0.259 -10.140   6.258  1.00 82.43    -0.346 N 
ATOM     23  H12 ARG A   7      -0.595 -10.121   7.210  1.00 82.43     0.163 HD
ATOM     24  C   LEU A   6       1.009  -9.758   5.955  1.00 82.03     0.241 C 
ATOM     25  O   LEU A   6       1.454  -9.596   4.816  1.00 82.03    -0.271 OA
BRANCH  24  26
ATOM     26  CA  LEU A   6       1.845  -9.378   7.172  1.00 82.03     0.177 C 
BRANCH  26  27
ATOM     27  CB  LEU A   6       2.596 -10.606   7.694  1.00 82.03     0.038 C 
BRANCH  27  28
ATOM     28  CG  LEU A   6       3.559 -11.279   6.714  1.00 82.03    -0.020 C 
ATOM     29  CD2 LEU A   6       4.209 -12.499   7.356  1.00 82.03     0.009 C 
ATOM     30  CD1 LEU A   6       4.618 -10.286   6.245  1.00 82.03     0.009 C 
ENDBRANCH  27  28
ENDBRANCH  26  27
BRANCH  26  31
ATOM     31  N   LEU A   6       1.007  -8.808   8.221  1.00 82.03    -0.346 N 
ATOM     32  H06 LEU A   6       0.971  -9.255   9.126  1.00 82.03     0.163 HD
ATOM     33  C   ASN A   5       0.325  -7.763   8.016  1.00 81.37     0.241 C 
ATOM     34  O   ASN A   5       0.333  -7.086   6.986  1.00 81.37    -0.271 OA
BRANCH  33  35
ATOM     35  CA  ASN A   5      -0.447  -7.292   9.245  1.00 81.37     0.185 C 
BRANCH  35  36
ATOM     36  CB  ASN A   5      -1.659  -6.458   8.824  1.00 81.37     0.137 C 
BRANCH  36  37
ATOM     37  CG  ASN A   5      -2.706  -7.276   8.094  1.00 81.37     0.217 C 
ATOM     38  OD1 ASN A   5      -2.670  -8.509   8.110  1.00 81.37    -0.274 OA
ATOM     39  ND2 ASN A   5      -3.646  -6.595   7.449  1.00 81.37    -0.370 N 
ATOM     40  H04 ASN A   5      -4.370  -7.087   6.945  1.00 81.37     0.159 HD
ATOM     41  H05 ASN A   5      -3.637  -5.585   7.463  1.00 81.37     0.159 HD
ENDBRANCH  36  37
ENDBRANCH  35  36
BRANCH  35  42
ATOM     42  N   ASN A   5       0.405  -6.534  10.155  1.00 81.37    -0.346 N 
ATOM     43  C   PRO A   4       1.536  -7.025  10.715  1.00 71.86     0.241 C 
ATOM     44  O   PRO A   4       1.449  -8.207  11.056  1.00 71.86    -0.271 OA
ATOM     45  H07 ASN A   5       0.135  -5.587  10.381  1.00 81.37     0.163 HD
BRANCH  43  46
ATOM     46  CA  PRO A   4       2.391  -6.053  11.525  1.00 71.86     0.179 C 
ATOM     47  CB  PRO A   4       3.881  -6.278  11.251  1.00 71.86     0.037 C 
ATOM     48  CG  PRO A   4       4.475  -6.574  12.590  1.00 71.86     0.022 C 
ATOM     49  CD  PRO A   4       3.362  -6.677  13.593  1.00 71.86     0.127 C 
ATOM     50  N   PRO A   4       2.278  -6.267  12.970  1.00 71.86    -0.337 N 
ATOM     51  C   VAL A   3       1.079  -6.645  13.241  1.00 74.28     0.243 C 
ATOM     52  O   VAL A   3       0.134  -6.102  12.665  1.00 74.28    -0.271 OA
BRANCH  51  53
ATOM     53  CA  VAL A   3       0.924  -7.160  14.670  1.00 74.28     0.180 C 
BRANCH  53  54
ATOM     54  CB  VAL A   3       0.005  -8.401  14.693  1.00 74.28     0.009 C 
ATOM     55  CG2 VAL A   3      -0.259  -8.843  16.131  1.00 74.28     0.012 C 
ATOM     56  CG1 VAL A   3       0.618  -9.542  13.883  1.00 74.28     0.012 C 
ENDBRANCH  53  54
BRANCH  53  57
ATOM     57  N   VAL A   3       0.410  -6.096  15.526  1.00 74.28    -0.346 N 
ATOM     58  H03 VAL A   3      -0.106  -6.353  16.355  1.00 74.28     0.163 HD
ATOM     59  C   GLY A   2       0.599  -4.735  15.252  1.00 76.70     0.236 C 
ATOM     60  O   GLY A   2       1.807  -4.600  15.045  1.00 76.70    -0.272 OA
BRANCH  59  61
ATOM     61  CA  GLY A   2      -0.155  -3.728  16.100  1.00 76.70     0.225 C 
BRANCH  61  62
ATOM     62  N   GLY A   2       0.119  -3.859  17.522  1.00 76.70    -0.351 N 
ATOM     63  C   ASN A   1      -0.473  -5.003  18.100  1.00 71.44     0.241 C 
ATOM     64  O   ASN A   1      -1.398  -5.567  17.513  1.00 71.44    -0.271 OA
ATOM     65  H07 GLY A   2       0.677  -3.198  18.044  1.00 76.70     0.163 HD
BRANCH  63  66
ATOM     66  CA  ASN A   1      -0.120  -5.383  19.535  1.00 71.44     0.185 C 
BRANCH  66  67
ATOM     67  CB  ASN A   1      -1.187  -6.315  20.115  1.00 71.44     0.137 C 
BRANCH  67  68
ATOM     68  CG  ASN A   1      -0.708  -7.055  21.348  1.00 71.44     0.217 C 
ATOM     69  ND2 ASN A   1      -1.517  -7.040  22.400  1.00 71.44    -0.370 N 
ATOM     70  H04 ASN A   1      -1.249  -7.516  23.250  1.00 71.44     0.159 HD
ATOM     71  H06 ASN A   1      -2.400  -6.553  22.351  1.00 71.44     0.159 HD
ATOM     72  OD1 ASN A   1       0.382  -7.634  21.356  1.00 71.44    -0.274 OA
ENDBRANCH  67  68
ENDBRANCH  66  67
BRANCH  66  73
ATOM     73  N   ASN A   1       0.040  -4.203  20.378  1.00 71.44    -0.346 N 
ATOM     74  C   GLY A   0       0.402  -4.488  21.696  1.00 46.33     0.246 C 
ATOM     75  O   GLY A   0       0.782  -5.643  21.901  1.00 46.33    -0.272 OA
ATOM     76  H05 ASN A   1      -0.099  -3.262  20.038  1.00 71.44     0.163 HD
BRANCH  74  77
ATOM     77  CA  GLY A   0       0.823  -3.363  22.621  1.00 46.33     0.368 C 
BRANCH  77  78
ATOM     78  N   GLY A   0      -0.152  -2.286  22.693  1.00 46.33     0.087 N 
ATOM     79  H02 GLY A   0      -0.373  -1.968  21.760  1.00 46.33     0.313 HD
ATOM     80  H01 GLY A   0       0.231  -1.520  23.228  1.00 46.33     0.313 HD
ENDBRANCH  77  78
ENDBRANCH  74  77
ENDBRANCH  66  73
ENDBRANCH  63  66
ENDBRANCH  61  62
ENDBRANCH  59  61
ENDBRANCH  53  57
ENDBRANCH  51  53
ENDBRANCH  43  46
ENDBRANCH  35  42
ENDBRANCH  33  35
ENDBRANCH  26  31
ENDBRANCH  24  26
ENDBRANCH  21  22
BRANCH  21  81
ATOM     81  CB  ARG A   7      -2.383 -11.249   5.710  1.00 82.43     0.036 C 
BRANCH  81  82
ATOM     82  CG  ARG A   7      -2.126 -12.579   6.399  1.00 82.43     0.023 C 
BRANCH  82  83
ATOM     83  CD  ARG A   7      -3.424 -13.297   6.742  1.00 82.43     0.138 C 
BRANCH  83  84
ATOM     84  NE  ARG A   7      -3.178 -14.526   7.491  1.00 82.43    -0.227 N 
ATOM     85  CZ  ARG A   7      -3.568 -15.738   7.107  1.00 82.43     0.665 C 
ATOM     86  NH1 ARG A   7      -4.233 -15.908   5.970  1.00 82.43    -0.235 N 
ATOM     87  NH2 ARG A   7      -3.292 -16.789   7.866  1.00 82.43    -0.235 N 
ATOM     88  H10 ARG A   7      -4.447 -15.112   5.386  1.00 82.43     0.174 HD
ATOM     89  H09 ARG A   7      -4.524 -16.833   5.689  1.00 82.43     0.174 HD
ATOM     90  H13 ARG A   7      -3.587 -17.711   7.578  1.00 82.43     0.174 HD
ATOM     91  H11 ARG A   7      -2.787 -16.668   8.732  1.00 82.43     0.174 HD
ATOM     92  H08 ARG A   7      -2.675 -14.450   8.364  1.00 82.43     0.177 HD
ENDBRANCH  83  84
ENDBRANCH  82  83
ENDBRANCH  81  82
ENDBRANCH  21  81
ENDBRANCH  18  21
ENDBRANCH  16  17
ENDBRANCH  13  16
ENDBRANCH  11  12
BRANCH  11  93
ATOM     93  CB  ASP A   9       2.584  -6.040   3.990  1.00 86.32     0.147 C 
BRANCH  93  94
ATOM     94  CG  ASP A   9       3.790  -5.401   3.324  1.00 86.32     0.175 C 
ATOM     95  OD2 ASP A   9       3.796  -4.159   3.176  1.00 86.32    -0.648 OA
ATOM     96  OD1 ASP A   9       4.735  -6.127   2.948  1.00 86.32    -0.648 OA
ENDBRANCH  93  94
ENDBRANCH  11  93
ENDBRANCH   9  11
ENDBRANCH   6   7
BRANCH   6  97
ATOM     97  CB  LEU A  10       1.814 -10.738   1.498  1.00 86.66     0.038 C 
BRANCH  97  98
ATOM     98  CG  LEU A  10       2.945 -11.084   2.468  1.00 86.66    -0.020 C 
ATOM     99  CD1 LEU A  10       2.794 -12.516   2.968  1.00 86.66     0.009 C 
ATOM    100  CD2 LEU A  10       4.301 -10.885   1.800  1.00 86.66     0.009 C 
ENDBRANCH  97  98
ENDBRANCH   6  97
ENDBRANCH   4   6
ENDBRANCH   1   2
BRANCH   1 101
ATOM    101  CB  GLN A  11      -2.875  -8.316  -0.015  1.00 85.71     0.044 C 
BRANCH 101 102
ATOM    102  CG  GLN A  11      -3.453  -9.561   0.645  1.00 85.71     0.105 C 
BRANCH 102 103
ATOM    103  CD  GLN A  11      -4.766  -9.291   1.357  1.00 85.71     0.215 C 
ATOM    104  OE1 GLN A  11      -5.845  -9.451   0.778  1.00 85.71    -0.274 OA
ATOM    105  NE2 GLN A  11      -4.683  -8.880   2.617  1.00 85.71    -0.370 N 
ATOM    106  H07 GLN A  11      -3.779  -8.763   3.051  1.00 85.71     0.159 HD
ATOM    107  H06 GLN A  11      -5.524  -8.685   3.141  1.00 85.71     0.159 HD
ENDBRANCH 102 103
ENDBRANCH 101 102
ENDBRANCH   1 101
BRANCH   1 108
ATOM    108  C   GLN A  11      -1.226  -7.385  -1.653  1.00 85.71     0.241 C 
ATOM    109  O   GLN A  11      -1.407  -7.477  -2.869  1.00 85.71    -0.271 OA
ATOM    110  N   VAL A  12      -0.660  -6.486  -1.066  1.00 87.20    -0.346 N 
ATOM    111  H08 VAL A  12      -0.432  -6.566  -0.085  1.00 87.20     0.163 HD
BRANCH 110 112
ATOM    112  CA  VAL A  12      -0.320  -5.285  -1.823  1.00 87.20     0.180 C 
BRANCH 112 113
ATOM    113  C   VAL A  12       0.859  -5.575  -2.749  1.00 87.20     0.241 C 
ATOM    114  N   LEU A  13       1.801  -6.240  -2.310  1.00 86.10    -0.346 N 
ATOM    115  H10 LEU A  13       1.759  -6.562  -1.354  1.00 86.10     0.163 HD
ATOM    116  O   VAL A  12       0.837  -5.207  -3.926  1.00 87.20    -0.271 OA
BRANCH 114 117
ATOM    117  CA  LEU A  13       2.973  -6.582  -3.108  1.00 86.10     0.177 C 
BRANCH 117 118
ATOM    118  C   LEU A  13       2.588  -7.467  -4.289  1.00 86.10     0.240 C 
ATOM    119  N   GLY A  14       1.712  -8.443  -4.039  1.00 89.53    -0.351 N 
ATOM    120  H12 GLY A  14       1.377  -8.580  -3.096  1.00 89.53     0.163 HD
ATOM    121  O   LEU A  13       3.055  -7.252  -5.410  1.00 86.10    -0.271 OA
BRANCH 119 122
ATOM    122  CA  GLY A  14       1.231  -9.313  -5.101  1.00 89.53     0.225 C 
BRANCH 122 123
ATOM    123  C   GLY A  14       0.513  -8.564  -6.207  1.00 89.53     0.236 C 
ATOM    124  O   GLY A  14       0.658  -8.897  -7.385  1.00 89.53    -0.272 OA
ATOM    125  N   GLN A  15      -0.126  -7.521  -5.770  1.00 86.17    -0.346 N 
ATOM    126  H03 GLN A  15      -0.113  -7.279  -4.790  1.00 86.17     0.163 HD
BRANCH 125 127
ATOM    127  CA  GLN A  15      -0.862  -6.709  -6.732  1.00 86.17     0.177 C 
BRANCH 127 128
ATOM    128  C   GLN A  15       0.087  -5.870  -7.584  1.00 86.17     0.241 C 
ATOM    129  O   GLN A  15      -0.141  -5.692  -8.782  1.00 86.17    -0.271 OA
ATOM    130  N   ARG A  16       1.158  -5.446  -6.962  1.00 86.82    -0.346 N 
ATOM    131  H09 ARG A  16       1.323  -5.721  -6.004  1.00 86.82     0.163 HD
BRANCH 130 132
ATOM    132  CA  ARG A  16       2.115  -4.579  -7.642  1.00 86.82     0.176 C 
BRANCH 132 133
ATOM    133  C   ARG A  16       2.970  -5.372  -8.624  1.00 86.82     0.241 C 
ATOM    134  N   VAL A  17       3.275  -6.534  -8.152  1.00 86.95    -0.346 N 
ATOM    135  H14 VAL A  17       2.946  -6.836  -7.246  1.00 86.95     0.163 HD
ATOM    136  O   ARG A  16       3.215  -4.922  -9.746  1.00 86.82    -0.271 OA
BRANCH 134 137
ATOM    137  CA  VAL A  17       4.115  -7.393  -8.980  1.00 86.95     0.180 C 
BRANCH 137 138
ATOM    138  CB  VAL A  17       4.727  -8.550  -8.160  1.00 86.95     0.009 C 
ATOM    139  CG1 VAL A  17       5.409  -9.562  -9.079  1.00 86.95     0.012 C 
ATOM    140  CG2 VAL A  17       5.715  -8.009  -7.129  1.00 86.95     0.012 C 
ENDBRANCH 137 138
BRANCH 137 141
ATOM    141  C   VAL A  17       3.298  -7.947 -10.145  1.00 86.95     0.241 C 
ATOM    142  N   GLY A  18       2.035  -8.326  -9.805  1.00 82.19    -0.351 N 
ATOM    143  H09 GLY A  18       1.706  -8.203  -8.858  1.00 82.19     0.163 HD
ATOM    144  O   VAL A  17       3.777  -7.993 -11.281  1.00 86.95    -0.271 OA
BRANCH 142 145
ATOM    145  CA  GLY A  18       1.162  -8.908 -10.811  1.00 82.19     0.225 C 
BRANCH 145 146
ATOM    146  C   GLY A  18       0.840  -7.954 -11.946  1.00 82.19     0.236 C 
ATOM    147  O   GLY A  18       0.654  -8.380 -13.088  1.00 82.19    -0.272 OA
ATOM    148  N   ARG A  19       0.746  -6.703 -11.481  1.00 75.31    -0.346 N 
ATOM    149  H03 ARG A  19       0.907  -6.458 -10.514  1.00 75.31     0.163 HD
BRANCH 148 150
ATOM    150  CA  ARG A  19       0.388  -5.726 -12.504  1.00 75.31     0.176 C 
BRANCH 150 151
ATOM    151  CB  ARG A  19      -0.179  -4.458 -11.863  1.00 75.31     0.036 C 
BRANCH 151 152
ATOM    152  CG  ARG A  19      -1.585  -4.624 -11.307  1.00 75.31     0.023 C 
BRANCH 152 153
ATOM    153  CD  ARG A  19      -2.108  -3.330 -10.700  1.00 75.31     0.138 C 
BRANCH 153 154
ATOM    154  NE  ARG A  19      -2.445  -2.350 -11.728  1.00 75.31    -0.227 N 
ATOM    155  H09 ARG A  19      -2.042  -2.476 -12.645  1.00 75.31     0.177 HD
ATOM    156  CZ  ARG A  19      -3.244  -1.303 -11.545  1.00 75.31     0.665 C 
ATOM    157  NH2 ARG A  19      -3.483  -0.473 -12.550  1.00 75.31    -0.235 N 
ATOM    158  NH1 ARG A  19      -3.808  -1.079 -10.363  1.00 75.31    -0.235 N 
ATOM    159  H12 ARG A  19      -3.058  -0.636 -13.452  1.00 75.31     0.174 HD
ATOM    160  H13 ARG A  19      -4.090   0.323 -12.414  1.00 75.31     0.174 HD
ATOM    161  H10 ARG A  19      -4.413  -0.281 -10.236  1.00 75.31     0.174 HD
ATOM    162  H11 ARG A  19      -3.631  -1.707  -9.592  1.00 75.31     0.174 HD
ENDBRANCH 153 154
ENDBRANCH 152 153
ENDBRANCH 151 152
ENDBRANCH 150 151
BRANCH 150 163
ATOM    163  C   ARG A  19       1.592  -5.378 -13.373  1.00 75.31     0.241 C 
ATOM    164  N   THR A  20       2.658  -5.665 -12.773  1.00 64.43    -0.346 N 
ATOM    165  H14 THR A  20       2.721  -5.972 -11.813  1.00 64.43     0.163 HD
ATOM    166  O   ARG A  19       1.435  -4.870 -14.486  1.00 75.31    -0.271 OA
BRANCH 164 167
ATOM    167  CA  THR A  20       3.791  -5.487 -13.675  1.00 64.43     0.174 C 
BRANCH 167 168
ATOM    168  C   THR A  20       3.875  -6.639 -14.671  1.00 64.43     0.258 C 
ATOM    169  O   THR A  20       4.284  -6.447 -15.818  1.00 64.43    -0.305 OA
ENDBRANCH 167 168
BRANCH 167 170
ATOM    170  CB  THR A  20       5.114  -5.382 -12.895  1.00 64.43     0.143 C 
ATOM    171  CG2 THR A  20       5.723  -3.990 -13.031  1.00 64.43     0.042 C 
BRANCH 170 172
ATOM    172  OG1 THR A  20       4.868  -5.650 -11.509  1.00 64.43    -0.393 OA
ATOM    173  H07 THR A  20       5.059  -4.864 -10.992  1.00 64.43     0.210 HD
ENDBRANCH 170 172
ENDBRANCH 167 170
ENDBRANCH 164 167
ENDBRANCH 150 163
ENDBRANCH 148 150
ENDBRANCH 145 146
ENDBRANCH 142 145
ENDBRANCH 137 141
ENDBRANCH 134 137
ENDBRANCH 132 133
BRANCH 132 174
ATOM    174  CB  ARG A  16       3.009  -3.864  -6.626  1.00 86.82     0.036 C 
BRANCH 174 175
ATOM    175  CG  ARG A  16       2.376  -2.625  -6.013  1.00 86.82     0.023 C 
BRANCH 175 176
ATOM    176  CD  ARG A  16       3.394  -1.793  -5.245  1.00 86.82     0.138 C 
BRANCH 176 177
ATOM    177  NE  ARG A  16       3.554  -2.268  -3.874  1.00 86.82    -0.227 N 
ATOM    178  H08 ARG A  16       3.279  -3.219  -3.673  1.00 86.82     0.177 HD
ATOM    179  CZ  ARG A  16       4.036  -1.540  -2.871  1.00 86.82     0.665 C 
ATOM    180  NH2 ARG A  16       4.139  -2.072  -1.661  1.00 86.82    -0.235 N 
ATOM    181  NH1 ARG A  16       4.416  -0.282  -3.067  1.00 86.82    -0.235 N 
ATOM    182  H13 ARG A  16       4.504  -1.522  -0.897  1.00 86.82     0.174 HD
ATOM    183  H12 ARG A  16       3.852  -3.027  -1.503  1.00 86.82     0.174 HD
ATOM    184  H11 ARG A  16       4.341   0.131  -3.986  1.00 86.82     0.174 HD
ATOM    185  H10 ARG A  16       4.780   0.261  -2.297  1.00 86.82     0.174 HD
ENDBRANCH 176 177
ENDBRANCH 175 176
ENDBRANCH 174 175
ENDBRANCH 132 174
ENDBRANCH 130 132
ENDBRANCH 127 128
BRANCH 127 186
ATOM    186  CB  GLN A  15      -1.864  -5.802  -6.015  1.00 86.17     0.044 C 
BRANCH 186 187
ATOM    187  CG  GLN A  15      -2.939  -6.560  -5.248  1.00 86.17     0.105 C 
BRANCH 187 188
ATOM    188  CD  GLN A  15      -3.964  -5.640  -4.610  1.00 86.17     0.215 C 
ATOM    189  OE1 GLN A  15      -3.766  -5.147  -3.496  1.00 86.17    -0.274 OA
ATOM    190  NE2 GLN A  15      -5.067  -5.404  -5.312  1.00 86.17    -0.370 N 
ATOM    191  H08 GLN A  15      -5.188  -5.829  -6.220  1.00 86.17     0.159 HD
ATOM    192  H07 GLN A  15      -5.784  -4.800  -4.937  1.00 86.17     0.159 HD
ENDBRANCH 187 188
ENDBRANCH 186 187
ENDBRANCH 127 186
ENDBRANCH 125 127
ENDBRANCH 122 123
ENDBRANCH 119 122
ENDBRANCH 117 118
BRANCH 117 193
ATOM    193  CB  LEU A  13       4.022  -7.289  -2.246  1.00 86.10     0.038 C 
BRANCH 193 194
ATOM    194  CG  LEU A  13       4.972  -6.387  -1.458  1.00 86.10    -0.020 C 
ATOM    195  CD2 LEU A  13       6.014  -5.769  -2.384  1.00 86.10     0.009 C 
ATOM    196  CD1 LEU A  13       5.644  -7.174  -0.338  1.00 86.10     0.009 C 
ENDBRANCH 193 194
ENDBRANCH 117 193
ENDBRANCH 114 117
ENDBRANCH 112 113
BRANCH 112 197
ATOM    197  CB  VAL A  12       0.015  -4.101  -0.888  1.00 87.20     0.009 C 
ATOM    198  CG2 VAL A  12      -1.220  -3.687  -0.090  1.00 87.20     0.012 C 
ATOM    199  CG1 VAL A  12       0.560  -2.919  -1.688  1.00 87.20     0.012 C 
ENDBRANCH 112 197
ENDBRANCH 110 112
ENDBRANCH   1 108
TORSDOF 76
