REMARK WARNING: 32 MAX_TORS EXCEEDED!!!
REMARK  76 active torsions:
REMARK  status: ('A' for Active; 'I' for Inactive)
REMARK    1  A    between atoms: N_1  and  CA_2 
REMARK    2  A    between atoms: CA_2  and  C_3 
REMARK       I    between atoms: C_3  and  N_7 
REMARK    3  A    between atoms: N_7  and  CA_8 
REMARK    4  A    between atoms: CA_8  and  CB_11 
REMARK    5  A    between atoms: CA_8  and  C_9 
REMARK       I    between atoms: C_9  and  N_18 
REMARK    6  A    between atoms: CB_11  and  CG_12 
REMARK       I    between atoms: CG_12  and  ND2_13 
REMARK    7  A    between atoms: N_18  and  CA_19 
REMARK    8  A    between atoms: CA_19  and  C_20 
REMARK       I    between atoms: C_20  and  N_23 
REMARK    9  A    between atoms: N_23  and  CA_24 
REMARK   10  A    between atoms: CA_24  and  C_25 
REMARK   11  A    between atoms: CA_24  and  CB_27 
REMARK       I    between atoms: C_25  and  N_31 
REMARK   12  A    between atoms: CA_32  and  C_33 
REMARK       I    between atoms: C_33  and  N_38 
REMARK   13  A    between atoms: N_38  and  CA_39 
REMARK   14  A    between atoms: CA_39  and  CB_42 
REMARK   15  A    between atoms: CA_39  and  C_40 
REMARK       I    between atoms: C_40  and  N_49 
REMARK   16  A    between atoms: CB_42  and  CG_43 
REMARK       I    between atoms: CG_43  and  ND2_44 
REMARK   17  A    between atoms: N_49  and  CA_50 
REMARK   18  A    between atoms: CA_50  and  CB_53 
REMARK   19  A    between atoms: CA_50  and  C_51 
REMARK       I    between atoms: C_51  and  N_58 
REMARK   20  A    between atoms: CB_53  and  CG_54 
REMARK   21  A    between atoms: N_58  and  CA_59 
REMARK   22  A    between atoms: CA_59  and  CB_62 
REMARK   23  A    between atoms: CA_59  and  C_60 
REMARK       I    between atoms: C_60  and  N_75 
REMARK   24  A    between atoms: CB_62  and  CG_63 
REMARK   25  A    between atoms: CG_63  and  CD_64 
REMARK   26  A    between atoms: CD_64  and  NE_65 
REMARK       I    between atoms: NE_65  and  CZ_66 
REMARK       I    between atoms: CZ_66  and  NH1_67 
REMARK       I    between atoms: CZ_66  and  NH2_68 
REMARK   27  A    between atoms: N_75  and  CA_76 
REMARK   28  A    between atoms: CA_76  and  C_77 
REMARK       I    between atoms: C_77  and  N_80 
REMARK   29  A    between atoms: N_80  and  CA_81 
REMARK   30  A    between atoms: CA_81  and  C_82 
REMARK   31  A    between atoms: CA_81  and  CB_84 
REMARK       I    between atoms: C_82  and  N_89 
REMARK   32  A    between atoms: CB_84  and  CG_85 
REMARK   33  A    between atoms: N_89  and  CA_90 
REMARK   34  A    between atoms: CA_90  and  CB_93 
REMARK   35  A    between atoms: CA_90  and  C_91 
REMARK       I    between atoms: C_91  and  N_98 
REMARK   36  A    between atoms: CB_93  and  CG_94 
REMARK   37  A    between atoms: N_98  and  CA_99 
REMARK   38  A    between atoms: CA_99  and  C_100 
REMARK   39  A    between atoms: CA_99  and  CB_102 
REMARK       I    between atoms: C_100  and  N_110 
REMARK   40  A    between atoms: CB_102  and  CG_103 
REMARK   41  A    between atoms: CG_103  and  CD_104 
REMARK       I    between atoms: CD_104  and  NE2_105 
REMARK   42  A    between atoms: N_110  and  CA_111 
REMARK   43  A    between atoms: CA_111  and  C_112 
REMARK   44  A    between atoms: CA_111  and  CB_114 
REMARK       I    between atoms: C_112  and  N_118 
REMARK   45  A    between atoms: N_118  and  CA_119 
REMARK   46  A    between atoms: CA_119  and  C_120 
REMARK   47  A    between atoms: CA_119  and  CB_122 
REMARK       I    between atoms: C_120  and  N_127 
REMARK   48  A    between atoms: CB_122  and  CG_123 
REMARK   49  A    between atoms: N_127  and  CA_128 
REMARK   50  A    between atoms: CA_128  and  C_129 
REMARK       I    between atoms: C_129  and  N_132 
REMARK   51  A    between atoms: N_132  and  CA_133 
REMARK   52  A    between atoms: CA_133  and  C_134 
REMARK   53  A    between atoms: CA_133  and  CB_136 
REMARK       I    between atoms: C_134  and  N_144 
REMARK   54  A    between atoms: CB_136  and  CG_137 
REMARK   55  A    between atoms: CG_137  and  CD_138 
REMARK       I    between atoms: CD_138  and  NE2_139 
REMARK   56  A    between atoms: N_144  and  CA_145 
REMARK   57  A    between atoms: CA_145  and  C_146 
REMARK   58  A    between atoms: CA_145  and  CB_148 
REMARK       I    between atoms: C_146  and  N_161 
REMARK   59  A    between atoms: CB_148  and  CG_149 
REMARK   60  A    between atoms: CG_149  and  CD_150 
REMARK   61  A    between atoms: CD_150  and  NE_151 
REMARK       I    between atoms: NE_151  and  CZ_152 
REMARK       I    between atoms: CZ_152  and  NH1_153 
REMARK   62  A    between atoms: N_161  and  CA_162 
REMARK   63  A    between atoms: CA_162  and  CB_165 
REMARK   64  A    between atoms: CA_162  and  C_163 
REMARK       I    between atoms: C_163  and  N_169 
REMARK   65  A    between atoms: N_169  and  CA_170 
REMARK   66  A    between atoms: CA_170  and  C_171 
REMARK       I    between atoms: C_171  and  N_174 
REMARK   67  A    between atoms: N_174  and  CA_175 
REMARK   68  A    between atoms: CA_175  and  CB_178 
REMARK   69  A    between atoms: CA_175  and  C_176 
REMARK       I    between atoms: C_176  and  N_191 
REMARK   70  A    between atoms: CB_178  and  CG_179 
REMARK   71  A    between atoms: CG_179  and  CD_180 
REMARK   72  A    between atoms: CD_180  and  NE_181 
REMARK       I    between atoms: NE_181  and  CZ_182 
REMARK       I    between atoms: CZ_182  and  NH1_183 
REMARK   73  A    between atoms: N_191  and  CA_192 
REMARK   74  A    between atoms: CA_192  and  C_193 
REMARK   75  A    between atoms: CA_192  and  CB_195 
REMARK   76  A    between atoms: CB_195  and  OG1_197 
ROOT
ATOM      1  CA  GLN A  12      -5.030  -9.444   4.740  0.00  0.00     0.177 C 
ENDROOT
BRANCH   1   2
ATOM      2  C   GLN A  12      -4.148  -8.249   4.395  0.00  0.00     0.241 C 
ATOM      3  N   VAL A  13      -3.016  -8.496   3.730  0.00  0.00    -0.346 N 
ATOM      4  H08 VAL A  13      -2.789  -9.449   3.484  0.00  0.00     0.163 HD
ATOM      5  O   GLN A  12      -4.489  -7.116   4.727  0.00  0.00    -0.271 OA
BRANCH   3   6
ATOM      6  CA  VAL A  13      -2.100  -7.427   3.350  0.00  0.00     0.180 C 
BRANCH   6   7
ATOM      7  C   VAL A  13      -2.855  -6.375   2.544  0.00  0.00     0.241 C 
ATOM      8  N   LEU A  14      -3.717  -6.813   1.624  0.00  0.00    -0.346 N 
ATOM      9  H10 LEU A  14      -3.837  -7.808   1.496  0.00  0.00     0.163 HD
ATOM     10  O   VAL A  13      -2.658  -5.180   2.754  0.00  0.00    -0.271 OA
BRANCH   8  11
ATOM     11  CA  LEU A  14      -4.491  -5.893   0.798  0.00  0.00     0.177 C 
BRANCH  11  12
ATOM     12  C   LEU A  14      -5.656  -5.336   1.610  0.00  0.00     0.240 C 
ATOM     13  N   GLY A  15      -6.420  -6.214   2.264  0.00  0.00    -0.351 N 
ATOM     14  H12 GLY A  15      -6.203  -7.198   2.199  0.00  0.00     0.163 HD
ATOM     15  O   LEU A  14      -5.860  -4.124   1.643  0.00  0.00    -0.271 OA
BRANCH  13  16
ATOM     16  CA  GLY A  15      -7.559  -5.789   3.069  0.00  0.00     0.225 C 
BRANCH  16  17
ATOM     17  C   GLY A  15      -7.173  -4.745   4.111  0.00  0.00     0.236 C 
ATOM     18  N   GLN A  16      -5.986  -4.887   4.708  0.00  0.00    -0.346 N 
ATOM     19  H03 GLN A  16      -5.398  -5.667   4.453  0.00  0.00     0.163 HD
ATOM     20  O   GLY A  15      -7.940  -3.821   4.371  0.00  0.00    -0.272 OA
BRANCH  18  21
ATOM     21  CA  GLN A  16      -5.518  -3.945   5.718  0.00  0.00     0.177 C 
BRANCH  21  22
ATOM     22  C   GLN A  16      -5.154  -2.606   5.085  0.00  0.00     0.241 C 
ATOM     23  O   GLN A  16      -5.624  -1.564   5.536  0.00  0.00    -0.271 OA
ATOM     24  N   ARG A  17      -4.321  -2.630   4.042  0.00  0.00    -0.346 N 
ATOM     25  H09 ARG A  17      -3.968  -3.518   3.715  0.00  0.00     0.163 HD
BRANCH  24  26
ATOM     26  CA  ARG A  17      -3.908  -1.407   3.362  0.00  0.00     0.176 C 
BRANCH  26  27
ATOM     27  C   ARG A  17      -5.163  -0.666   2.915  0.00  0.00     0.241 C 
ATOM     28  N   VAL A  18      -6.141  -1.393   2.370  0.00  0.00    -0.346 N 
ATOM     29  H14 VAL A  18      -6.017  -2.391   2.274  0.00  0.00     0.163 HD
ATOM     30  O   ARG A  17      -5.245   0.552   3.063  0.00  0.00    -0.271 OA
BRANCH  28  31
ATOM     31  CA  VAL A  18      -7.384  -0.785   1.909  0.00  0.00     0.180 C 
BRANCH  31  32
ATOM     32  CB  VAL A  18      -8.269  -1.871   1.215  1.00 73.00     0.009 C 
ATOM     33  CG2 VAL A  18      -7.569  -2.383  -0.035  1.00 73.00     0.012 C 
ATOM     34  CG1 VAL A  18      -9.618  -1.298   0.809  1.00 73.00     0.012 C 
ENDBRANCH  31  32
BRANCH  31  35
ATOM     35  C   VAL A  18      -8.261  -0.089   2.945  0.00  0.00     0.241 C 
ATOM     36  O   VAL A  18      -8.799   0.982   2.676  0.00  0.00    -0.271 OA
ATOM     37  N   GLY A  19      -8.406  -0.693   4.127  0.00  0.00    -0.351 N 
ATOM     38  H09 GLY A  19      -7.938  -1.573   4.290  0.00  0.00     0.163 HD
BRANCH  37  39
ATOM     39  CA  GLY A  19      -9.222  -0.115   5.189  0.00  0.00     0.225 C 
BRANCH  39  40
ATOM     40  C   GLY A  19      -8.572   1.127   5.791  0.00  0.00     0.236 C 
ATOM     41  N   ARG A  20      -7.280   1.043   6.117  0.00  0.00    -0.346 N 
ATOM     42  H03 ARG A  20      -6.788   0.176   5.956  0.00  0.00     0.163 HD
ATOM     43  O   GLY A  19      -9.235   2.149   5.958  0.00  0.00    -0.272 OA
BRANCH  41  44
ATOM     44  CA  ARG A  20      -6.561   2.171   6.699  0.00  0.00     0.176 C 
BRANCH  44  45
ATOM     45  CB  ARG A  20      -5.466   1.604   7.652  1.00  0.00     0.036 C 
BRANCH  45  46
ATOM     46  CG  ARG A  20      -4.862   2.640   8.585  1.00  0.00     0.023 C 
BRANCH  46  47
ATOM     47  CD  ARG A  20      -3.735   3.404   7.906  1.00  0.00     0.138 C 
BRANCH  47  48
ATOM     48  NE  ARG A  20      -2.660   2.519   7.471  1.00  0.00    -0.227 N 
ATOM     49  H09 ARG A  20      -2.653   2.223   6.505  1.00  0.00     0.177 HD
ATOM     50  CZ  ARG A  20      -1.689   2.077   8.264  1.00  0.00     0.665 C 
ATOM     51  NH1 ARG A  20      -1.656   2.442   9.539  1.00  0.00    -0.235 N 
ATOM     52  NH2 ARG A  20      -0.751   1.274   7.781  1.00  0.00    -0.235 N 
ATOM     53  H11 ARG A  20      -2.369   3.055   9.908  1.00  0.00     0.174 HD
ATOM     54  H10 ARG A  20      -0.917   2.107  10.141  1.00  0.00     0.174 HD
ATOM     55  H13 ARG A  20      -0.013   0.940   8.384  1.00  0.00     0.174 HD
ATOM     56  H12 ARG A  20      -0.775   0.997   6.810  1.00  0.00     0.174 HD
ENDBRANCH  47  48
ENDBRANCH  46  47
ENDBRANCH  45  46
ENDBRANCH  44  45
BRANCH  44  57
ATOM     57  C   ARG A  20      -5.889   3.183   5.776  0.00  0.00     0.241 C 
ATOM     58  N   THR A  21      -5.620   2.788   4.529  0.00  0.00    -0.346 N 
ATOM     59  H14 THR A  21      -5.866   1.850   4.246  0.00  0.00     0.163 HD
ATOM     60  O   ARG A  20      -5.617   4.308   6.190  0.00  0.00    -0.271 OA
BRANCH  58  61
ATOM     61  CA  THR A  21      -4.980   3.675   3.565  0.00  0.00     0.174 C 
BRANCH  61  62
ATOM     62  C   THR A  21      -5.821   3.890   2.311  0.00  0.00     0.258 C 
ATOM     63  O   THR A  21      -6.393   4.963   2.131  0.00  0.00    -0.305 OA
ENDBRANCH  61  62
BRANCH  61  64
ATOM     64  CB  THR A  21      -3.597   3.129   3.144  1.00 49.00     0.143 C 
ATOM     65  CG2 THR A  21      -2.678   3.012   4.350  1.00 49.00     0.042 C 
BRANCH  64  66
ATOM     66  OG1 THR A  21      -3.756   1.832   2.554  1.00 49.00    -0.393 OA
ATOM     67  H07 THR A  21      -3.951   1.189   3.240  1.00 49.00     0.210 HD
ENDBRANCH  64  66
ENDBRANCH  61  64
ENDBRANCH  58  61
ENDBRANCH  44  57
ENDBRANCH  41  44
ENDBRANCH  39  40
ENDBRANCH  37  39
ENDBRANCH  31  35
ENDBRANCH  28  31
ENDBRANCH  26  27
BRANCH  26  68
ATOM     68  CB  ARG A  17      -3.001  -1.707   2.180  1.00  0.00     0.036 C 
BRANCH  68  69
ATOM     69  CG  ARG A  17      -1.550  -1.942   2.563  1.00  0.00     0.023 C 
BRANCH  69  70
ATOM     70  CD  ARG A  17      -1.347  -3.337   3.132  1.00  0.00     0.138 C 
BRANCH  70  71
ATOM     71  NE  ARG A  17      -1.759  -3.423   4.529  1.00  0.00    -0.227 N 
ATOM     72  H08 ARG A  17      -2.689  -3.763   4.727  1.00  0.00     0.177 HD
ATOM     73  CZ  ARG A  17      -0.989  -3.083   5.558  1.00  0.00     0.665 C 
ATOM     74  NH2 ARG A  17      -1.449  -3.195   6.796  1.00  0.00    -0.235 N 
ATOM     75  NH1 ARG A  17       0.241  -2.634   5.346  1.00  0.00    -0.235 N 
ATOM     76  H12 ARG A  17      -2.385  -3.538   6.958  1.00  0.00     0.174 HD
ATOM     77  H13 ARG A  17      -0.863  -2.938   7.578  1.00  0.00     0.174 HD
ATOM     78  H10 ARG A  17       0.826  -2.377   6.128  1.00  0.00     0.174 HD
ATOM     79  H11 ARG A  17       0.592  -2.549   4.403  1.00  0.00     0.174 HD
ENDBRANCH  70  71
ENDBRANCH  69  70
ENDBRANCH  68  69
ENDBRANCH  26  68
ENDBRANCH  24  26
ENDBRANCH  21  22
BRANCH  21  80
ATOM     80  CB  GLN A  16      -4.317  -4.517   6.472  1.00 35.00     0.044 C 
BRANCH  80  81
ATOM     81  CG  GLN A  16      -3.822  -3.637   7.609  1.00 35.00     0.105 C 
BRANCH  81  82
ATOM     82  CD  GLN A  16      -4.835  -3.513   8.730  1.00 35.00     0.215 C 
ATOM     83  OE1 GLN A  16      -5.435  -4.501   9.151  1.00 35.00    -0.274 OA
ATOM     84  NE2 GLN A  16      -5.026  -2.292   9.219  1.00 35.00    -0.370 N 
ATOM     85  H07 GLN A  16      -5.688  -2.146   9.968  1.00 35.00     0.159 HD
ATOM     86  H08 GLN A  16      -4.509  -1.510   8.842  1.00 35.00     0.159 HD
ENDBRANCH  81  82
ENDBRANCH  80  81
ENDBRANCH  21  80
ENDBRANCH  18  21
ENDBRANCH  16  17
ENDBRANCH  13  16
ENDBRANCH  11  12
BRANCH  11  87
ATOM     87  CB  LEU A  14      -4.997  -6.584  -0.463  1.00 59.00     0.038 C 
BRANCH  87  88
ATOM     88  CG  LEU A  14      -5.507  -5.667  -1.577  1.00 59.00    -0.020 C 
ATOM     89  CD2 LEU A  14      -6.808  -4.995  -1.165  1.00 59.00     0.009 C 
ATOM     90  CD1 LEU A  14      -5.764  -6.460  -2.849  1.00 59.00     0.009 C 
ENDBRANCH  87  88
ENDBRANCH  11  87
ENDBRANCH   8  11
ENDBRANCH   6   7
BRANCH   6  91
ATOM     91  CB  VAL A  13      -0.913  -7.950   2.532  1.00 73.00     0.009 C 
ATOM     92  CG2 VAL A  13      -0.062  -8.896   3.365  1.00 73.00     0.012 C 
ATOM     93  CG1 VAL A  13      -0.037  -6.796   2.070  1.00 73.00     0.012 C 
ENDBRANCH   6  91
ENDBRANCH   3   6
ENDBRANCH   1   2
BRANCH   1  94
ATOM     94  CB  GLN A  12      -4.456 -10.190   5.947  1.00 35.00     0.044 C 
BRANCH  94  95
ATOM     95  CG  GLN A  12      -3.044 -10.714   5.738  1.00 35.00     0.105 C 
BRANCH  95  96
ATOM     96  CD  GLN A  12      -2.533 -11.496   6.932  1.00 35.00     0.215 C 
ATOM     97  NE2 GLN A  12      -2.573 -12.820   6.830  1.00 35.00    -0.370 N 
ATOM     98  H07 GLN A  12      -2.930 -13.251   5.990  1.00 35.00     0.159 HD
ATOM     99  H06 GLN A  12      -2.246 -13.395   7.593  1.00 35.00     0.159 HD
ATOM    100  OE1 GLN A  12      -2.108 -10.917   7.931  1.00 35.00    -0.274 OA
ENDBRANCH  95  96
ENDBRANCH  94  95
ENDBRANCH   1  94
BRANCH   1 101
ATOM    101  N   GLN A  12      -5.168 -10.345   3.601  0.00  0.00    -0.346 N 
ATOM    102  C   LEU A  11      -5.783  -9.967   2.478  0.00  0.00     0.241 C 
ATOM    103  O   LEU A  11      -6.269  -8.847   2.330  0.00  0.00    -0.271 OA
ATOM    104  H12 GLN A  12      -4.788 -11.279   3.664  0.00  0.00     0.163 HD
BRANCH 102 105
ATOM    105  CA  LEU A  11      -5.869 -10.991   1.351  0.00  0.00     0.177 C 
BRANCH 105 106
ATOM    106  N   LEU A  11      -4.555 -11.617   1.266  0.00  0.00    -0.346 N 
ATOM    107  H05 LEU A  11      -4.472 -12.610   1.430  0.00  0.00     0.163 HD
ATOM    108  C   ASP A  10      -3.459 -10.912   0.977  0.00  0.00     0.241 C 
ATOM    109  O   ASP A  10      -3.484  -9.701   0.766  0.00  0.00    -0.271 OA
BRANCH 108 110
ATOM    110  CA  ASP A  10      -2.137 -11.671   0.915  0.00  0.00     0.186 C 
BRANCH 110 111
ATOM    111  CB  ASP A  10      -2.031 -12.435  -0.407  1.00 51.00     0.147 C 
BRANCH 111 112
ATOM    112  CG  ASP A  10      -0.618 -12.900  -0.701  1.00 51.00     0.175 C 
ATOM    113  OD1 ASP A  10       0.316 -12.432  -0.015  1.00 51.00    -0.648 OA
ATOM    114  OD2 ASP A  10      -0.444 -13.731  -1.615  1.00 51.00    -0.648 OA
ENDBRANCH 111 112
ENDBRANCH 110 111
BRANCH 110 115
ATOM    115  N   ASP A  10      -1.997 -12.583   2.044  0.00  0.00    -0.346 N 
ATOM    116  H03 ASP A  10      -1.942 -13.576   1.870  0.00  0.00     0.163 HD
ATOM    117  C   GLY A   9      -1.939 -12.140   3.302  0.00  0.00     0.236 C 
ATOM    118  O   GLY A   9      -1.998 -10.946   3.589  0.00  0.00    -0.272 OA
BRANCH 117 119
ATOM    119  CA  GLY A   9      -1.792 -13.184   4.404  0.00  0.00     0.225 C 
BRANCH 119 120
ATOM    120  N   GLY A   9      -2.658 -14.349   4.260  0.00  0.00    -0.351 N 
ATOM    121  C   ARG A   8      -3.988 -14.237   4.231  0.00  0.00     0.240 C 
ATOM    122  O   ARG A   8      -4.565 -13.156   4.324  0.00  0.00    -0.271 OA
ATOM    123  H14 GLY A   9      -2.240 -15.265   4.180  0.00  0.00     0.163 HD
BRANCH 121 124
ATOM    124  CA  ARG A   8      -4.794 -15.522   4.076  0.00  0.00     0.176 C 
BRANCH 124 125
ATOM    125  N   ARG A   8      -4.239 -16.302   2.975  0.00  0.00    -0.346 N 
ATOM    126  H12 ARG A   8      -3.930 -17.248   3.149  0.00  0.00     0.163 HD
ATOM    127  C   LEU A   7      -4.129 -15.798   1.744  0.00  0.00     0.241 C 
ATOM    128  O   LEU A   7      -4.484 -14.656   1.459  0.00  0.00    -0.271 OA
BRANCH 127 129
ATOM    129  CA  LEU A   7      -3.535 -16.703   0.670  0.00  0.00     0.177 C 
BRANCH 129 130
ATOM    130  CB  LEU A   7      -4.543 -17.783   0.273  1.00 59.00     0.038 C 
BRANCH 130 131
ATOM    131  CG  LEU A   7      -4.163 -18.657  -0.924  1.00 59.00    -0.020 C 
ATOM    132  CD2 LEU A   7      -4.109 -17.828  -2.198  1.00 59.00     0.009 C 
ATOM    133  CD1 LEU A   7      -5.183 -19.768  -1.123  1.00 59.00     0.009 C 
ENDBRANCH 130 131
ENDBRANCH 129 130
BRANCH 129 134
ATOM    134  N   LEU A   7      -2.289 -17.308   1.128  0.00  0.00    -0.346 N 
ATOM    135  H06 LEU A   7      -2.201 -18.314   1.127  0.00  0.00     0.163 HD
ATOM    136  C   ASN A   6      -1.261 -16.566   1.548  0.00  0.00     0.241 C 
ATOM    137  O   ASN A   6      -1.295 -15.338   1.575  0.00  0.00    -0.271 OA
BRANCH 136 138
ATOM    138  CA  ASN A   6      -0.008 -17.306   2.004  0.00  0.00     0.185 C 
BRANCH 138 139
ATOM    139  N   ASN A   6      -0.467 -18.397   2.856  0.00  0.00    -0.346 N 
ATOM    140  H07 ASN A   6      -0.258 -19.349   2.591  0.00  0.00     0.163 HD
ATOM    141  C   PRO A   5      -1.156 -18.171   3.977  0.00  0.00     0.241 C 
ATOM    142  O   PRO A   5      -1.447 -17.041   4.361  0.00  0.00    -0.271 OA
BRANCH 141 143
ATOM    143  CA  PRO A   5      -1.586 -19.389   4.789  0.00  0.00     0.179 C 
ATOM    144  CB  PRO A   5      -0.433 -20.136   5.421  1.00 50.00     0.037 C 
ATOM    145  CG  PRO A   5      -0.790 -21.597   5.267  1.00 50.00     0.022 C 
ATOM    146  CD  PRO A   5      -1.473 -21.639   3.911  1.00 50.00     0.127 C 
ATOM    147  N   PRO A   5      -2.153 -20.331   3.831  0.00  0.00    -0.337 N 
ATOM    148  C   VAL A   4      -3.203 -20.011   3.070  0.00  0.00     0.243 C 
ATOM    149  O   VAL A   4      -3.755 -18.914   3.126  0.00  0.00    -0.271 OA
BRANCH 148 150
ATOM    150  CA  VAL A   4      -3.713 -21.075   2.103  0.00  0.00     0.180 C 
BRANCH 150 151
ATOM    151  CB  VAL A   4      -4.705 -21.998   2.812  1.00 73.00     0.009 C 
ATOM    152  CG2 VAL A   4      -5.945 -21.221   3.227  1.00 73.00     0.012 C 
ATOM    153  CG1 VAL A   4      -4.072 -22.594   4.061  1.00 73.00     0.012 C 
ENDBRANCH 150 151
BRANCH 150 154
ATOM    154  N   VAL A   4      -2.560 -21.796   1.577  0.00  0.00    -0.346 N 
ATOM    155  C   GLY A   3      -1.609 -21.179   0.870  0.00  0.00     0.236 C 
ATOM    156  O   GLY A   3      -1.643 -19.977   0.618  0.00  0.00    -0.272 OA
ATOM    157  H03 VAL A   4      -2.478 -22.787   1.752  0.00  0.00     0.163 HD
BRANCH 155 158
ATOM    158  CA  GLY A   3      -0.448 -22.033   0.368  0.00  0.00     0.225 C 
BRANCH 158 159
ATOM    159  N   GLY A   3       0.457 -21.399  -0.583  0.00  0.00    -0.351 N 
ATOM    160  H07 GLY A   3       0.424 -20.396  -0.699  0.00  0.00     0.163 HD
ATOM    161  C   ASN A   2       1.328 -22.109  -1.304  0.00  0.00     0.241 C 
ATOM    162  O   ASN A   2       1.423 -23.331  -1.216  0.00  0.00    -0.271 OA
BRANCH 161 163
ATOM    163  CA  ASN A   2       2.226 -21.341  -2.268  0.00  0.00     0.185 C 
BRANCH 163 164
ATOM    164  CB  ASN A   2       1.772 -21.518  -3.704  1.00  0.00     0.137 C 
BRANCH 164 165
ATOM    165  CG  ASN A   2       2.357 -20.467  -4.626  1.00  0.00     0.217 C 
ATOM    166  ND2 ASN A   2       1.532 -19.943  -5.524  1.00  0.00    -0.370 N 
ATOM    167  H04 ASN A   2       1.866 -19.238  -6.166  1.00  0.00     0.159 HD
ATOM    168  H06 ASN A   2       0.570 -20.249  -5.566  1.00  0.00     0.159 HD
ATOM    169  OD1 ASN A   2       3.538 -20.132  -4.531  1.00  0.00    -0.274 OA
ENDBRANCH 164 165
ENDBRANCH 163 164
BRANCH 163 170
ATOM    170  N   ASN A   2       3.588 -21.824  -2.070  0.00  0.00    -0.346 N 
ATOM    171  H05 ASN A   2       3.974 -22.489  -2.725  0.00  0.00     0.163 HD
ATOM    172  C   GLY A   1       4.337 -21.410  -1.045  0.00  0.00     0.246 C 
ATOM    173  O   GLY A   1       3.934 -20.603  -0.210  0.00  0.00    -0.272 OA
BRANCH 172 174
ATOM    174  CA  GLY A   1       5.747 -21.983  -0.936  0.00  0.00     0.368 C 
BRANCH 174 175
ATOM    175  N   GLY A   1       6.626 -21.129  -0.145  0.00  0.00     0.087 N 
ATOM    176  H02 GLY A   1       6.885 -21.608   0.706  0.00  0.00     0.313 HD
ATOM    177  H01 GLY A   1       6.145 -20.271   0.084  0.00  0.00     0.313 HD
ENDBRANCH 174 175
ENDBRANCH 172 174
ENDBRANCH 163 170
ENDBRANCH 161 163
ENDBRANCH 158 159
ENDBRANCH 155 158
ENDBRANCH 150 154
ENDBRANCH 148 150
ENDBRANCH 141 143
ENDBRANCH 138 139
BRANCH 138 178
ATOM    178  CB  ASN A   6       0.803 -17.806   0.829  1.00  0.00     0.137 C 
BRANCH 178 179
ATOM    179  CG  ASN A   6       2.216 -18.184   1.228  1.00  0.00     0.217 C 
ATOM    180  ND2 ASN A   6       3.184 -17.806   0.402  1.00  0.00    -0.370 N 
ATOM    181  H04 ASN A   6       4.146 -18.029   0.615  1.00  0.00     0.159 HD
ATOM    182  H05 ASN A   6       2.959 -17.295  -0.440  1.00  0.00     0.159 HD
ATOM    183  OD1 ASN A   6       2.432 -18.808   2.267  1.00  0.00    -0.274 OA
ENDBRANCH 178 179
ENDBRANCH 138 178
ENDBRANCH 136 138
ENDBRANCH 129 134
ENDBRANCH 127 129
ENDBRANCH 124 125
BRANCH 124 184
ATOM    184  CB  ARG A   8      -4.791 -16.321   5.372  1.00  0.00     0.036 C 
BRANCH 184 185
ATOM    185  CG  ARG A   8      -5.655 -17.571   5.326  1.00  0.00     0.023 C 
BRANCH 185 186
ATOM    186  CD  ARG A   8      -7.132 -17.219   5.262  1.00  0.00     0.138 C 
BRANCH 186 187
ATOM    187  NE  ARG A   8      -7.975 -18.409   5.202  1.00  0.00    -0.227 N 
ATOM    188  H08 ARG A   8      -8.284 -18.725   4.294  1.00  0.00     0.177 HD
ATOM    189  CZ  ARG A   8      -8.362 -19.104   6.268  1.00  0.00     0.665 C 
ATOM    190  NH1 ARG A   8      -7.978 -18.728   7.480  1.00  0.00    -0.235 N 
ATOM    191  NH2 ARG A   8      -9.130 -20.174   6.118  1.00  0.00    -0.235 N 
ATOM    192  H09 ARG A   8      -8.271 -19.256   8.289  1.00  0.00     0.174 HD
ATOM    193  H10 ARG A   8      -7.392 -17.913   7.594  1.00  0.00     0.174 HD
ATOM    194  H11 ARG A   8      -9.422 -20.461   5.195  1.00  0.00     0.174 HD
ATOM    195  H13 ARG A   8      -9.423 -20.702   6.927  1.00  0.00     0.174 HD
ENDBRANCH 186 187
ENDBRANCH 185 186
ENDBRANCH 184 185
ENDBRANCH 124 184
ENDBRANCH 121 124
ENDBRANCH 119 120
ENDBRANCH 117 119
ENDBRANCH 110 115
ENDBRANCH 108 110
ENDBRANCH 105 106
BRANCH 105 196
ATOM    196  CB  LEU A  11      -6.965 -12.004   1.601  1.00 59.00     0.038 C 
BRANCH 196 197
ATOM    197  CG  LEU A  11      -6.844 -12.853   2.868  1.00 59.00    -0.020 C 
ATOM    198  CD2 LEU A  11      -7.675 -14.121   2.747  1.00 59.00     0.009 C 
ATOM    199  CD1 LEU A  11      -7.335 -12.078   4.082  1.00 59.00     0.009 C 
ENDBRANCH 196 197
ENDBRANCH 105 196
ENDBRANCH 102 105
ENDBRANCH   1 101
TORSDOF 76
