REMARK WARNING: 32 MAX_TORS EXCEEDED!!!
REMARK  76 active torsions:
REMARK  status: ('A' for Active; 'I' for Inactive)
REMARK    1  A    between atoms: N_1  and  CA_2 
REMARK    2  A    between atoms: CA_2  and  C_3 
REMARK       I    between atoms: C_3  and  N_7 
REMARK    3  A    between atoms: N_7  and  CA_8 
REMARK    4  A    between atoms: CA_8  and  CB_11 
REMARK    5  A    between atoms: CA_8  and  C_9 
REMARK       I    between atoms: C_9  and  N_18 
REMARK    6  A    between atoms: CB_11  and  CG_12 
REMARK       I    between atoms: CG_12  and  ND2_13 
REMARK    7  A    between atoms: N_18  and  CA_19 
REMARK    8  A    between atoms: CA_19  and  C_20 
REMARK       I    between atoms: C_20  and  N_23 
REMARK    9  A    between atoms: N_23  and  CA_24 
REMARK   10  A    between atoms: CA_24  and  CB_27 
REMARK   11  A    between atoms: CA_24  and  C_25 
REMARK       I    between atoms: C_25  and  N_31 
REMARK   12  A    between atoms: CA_32  and  C_33 
REMARK       I    between atoms: C_33  and  N_38 
REMARK   13  A    between atoms: N_38  and  CA_39 
REMARK   14  A    between atoms: CA_39  and  CB_42 
REMARK   15  A    between atoms: CA_39  and  C_40 
REMARK       I    between atoms: C_40  and  N_49 
REMARK   16  A    between atoms: CB_42  and  CG_43 
REMARK       I    between atoms: CG_43  and  ND2_44 
REMARK   17  A    between atoms: N_49  and  CA_50 
REMARK   18  A    between atoms: CA_50  and  C_51 
REMARK   19  A    between atoms: CA_50  and  CB_53 
REMARK       I    between atoms: C_51  and  N_58 
REMARK   20  A    between atoms: CB_53  and  CG_54 
REMARK   21  A    between atoms: N_58  and  CA_59 
REMARK   22  A    between atoms: CA_59  and  C_60 
REMARK   23  A    between atoms: CA_59  and  CB_62 
REMARK       I    between atoms: C_60  and  N_75 
REMARK   24  A    between atoms: CB_62  and  CG_63 
REMARK   25  A    between atoms: CG_63  and  CD_64 
REMARK   26  A    between atoms: CD_64  and  NE_65 
REMARK       I    between atoms: NE_65  and  CZ_66 
REMARK       I    between atoms: CZ_66  and  NH1_67 
REMARK       I    between atoms: CZ_66  and  NH2_68 
REMARK   27  A    between atoms: N_75  and  CA_76 
REMARK   28  A    between atoms: CA_76  and  C_77 
REMARK       I    between atoms: C_77  and  N_80 
REMARK   29  A    between atoms: N_80  and  CA_81 
REMARK   30  A    between atoms: CA_81  and  C_82 
REMARK   31  A    between atoms: CA_81  and  CB_84 
REMARK       I    between atoms: C_82  and  N_89 
REMARK   32  A    between atoms: CB_84  and  CG_85 
REMARK   33  A    between atoms: N_89  and  CA_90 
REMARK   34  A    between atoms: CA_90  and  C_91 
REMARK   35  A    between atoms: CA_90  and  CB_93 
REMARK       I    between atoms: C_91  and  N_98 
REMARK   36  A    between atoms: CB_93  and  CG_94 
REMARK   37  A    between atoms: N_98  and  CA_99 
REMARK   38  A    between atoms: CA_99  and  C_100 
REMARK   39  A    between atoms: CA_99  and  CB_102 
REMARK       I    between atoms: C_100  and  N_110 
REMARK   40  A    between atoms: CB_102  and  CG_103 
REMARK   41  A    between atoms: CG_103  and  CD_104 
REMARK       I    between atoms: CD_104  and  NE2_105 
REMARK   42  A    between atoms: N_110  and  CA_111 
REMARK   43  A    between atoms: CA_111  and  C_112 
REMARK   44  A    between atoms: CA_111  and  CB_114 
REMARK       I    between atoms: C_112  and  N_118 
REMARK   45  A    between atoms: N_118  and  CA_119 
REMARK   46  A    between atoms: CA_119  and  C_120 
REMARK   47  A    between atoms: CA_119  and  CB_122 
REMARK       I    between atoms: C_120  and  N_127 
REMARK   48  A    between atoms: CB_122  and  CG_123 
REMARK   49  A    between atoms: N_127  and  CA_128 
REMARK   50  A    between atoms: CA_128  and  C_129 
REMARK       I    between atoms: C_129  and  N_132 
REMARK   51  A    between atoms: N_132  and  CA_133 
REMARK   52  A    between atoms: CA_133  and  C_134 
REMARK   53  A    between atoms: CA_133  and  CB_136 
REMARK       I    between atoms: C_134  and  N_144 
REMARK   54  A    between atoms: CB_136  and  CG_137 
REMARK   55  A    between atoms: CG_137  and  CD_138 
REMARK       I    between atoms: CD_138  and  NE2_139 
REMARK   56  A    between atoms: N_144  and  CA_145 
REMARK   57  A    between atoms: CA_145  and  CB_148 
REMARK   58  A    between atoms: CA_145  and  C_146 
REMARK       I    between atoms: C_146  and  N_161 
REMARK   59  A    between atoms: CB_148  and  CG_149 
REMARK   60  A    between atoms: CG_149  and  CD_150 
REMARK   61  A    between atoms: CD_150  and  NE_151 
REMARK       I    between atoms: NE_151  and  CZ_152 
REMARK       I    between atoms: CZ_152  and  NH1_153 
REMARK   62  A    between atoms: N_161  and  CA_162 
REMARK   63  A    between atoms: CA_162  and  C_163 
REMARK   64  A    between atoms: CA_162  and  CB_165 
REMARK       I    between atoms: C_163  and  N_169 
REMARK   65  A    between atoms: N_169  and  CA_170 
REMARK   66  A    between atoms: CA_170  and  C_171 
REMARK       I    between atoms: C_171  and  N_174 
REMARK   67  A    between atoms: N_174  and  CA_175 
REMARK   68  A    between atoms: CA_175  and  C_176 
REMARK   69  A    between atoms: CA_175  and  CB_178 
REMARK       I    between atoms: C_176  and  N_191 
REMARK   70  A    between atoms: CB_178  and  CG_179 
REMARK   71  A    between atoms: CG_179  and  CD_180 
REMARK   72  A    between atoms: CD_180  and  NE_181 
REMARK       I    between atoms: NE_181  and  CZ_182 
REMARK       I    between atoms: CZ_182  and  NH1_183 
REMARK   73  A    between atoms: N_191  and  CA_192 
REMARK   74  A    between atoms: CA_192  and  C_193 
REMARK   75  A    between atoms: CA_192  and  CB_195 
REMARK   76  A    between atoms: CB_195  and  OG1_197 
ROOT
ATOM      1  CA  GLN A  12       1.040  -9.271  -1.201  0.00  0.00     0.177 C 
ENDROOT
BRANCH   1   2
ATOM      2  N   GLN A  12      -0.234  -8.761  -0.706  0.00  0.00    -0.346 N 
ATOM      3  C   LEU A  11      -1.386  -9.389  -0.954  0.00  0.00     0.241 C 
ATOM      4  O   LEU A  11      -1.449 -10.428  -1.607  0.00  0.00    -0.271 OA
ATOM      5  H12 GLN A  12      -0.245  -7.910  -0.161  0.00  0.00     0.163 HD
BRANCH   3   6
ATOM      6  CA  LEU A  11      -2.657  -8.765  -0.387  0.00  0.00     0.177 C 
BRANCH   6   7
ATOM      7  CB  LEU A  11      -3.061  -7.542  -1.208  1.00 59.00     0.038 C 
BRANCH   7   8
ATOM      8  CG  LEU A  11      -3.315  -7.782  -2.697  1.00 59.00    -0.020 C 
ATOM      9  CD2 LEU A  11      -3.637  -6.475  -3.404  1.00 59.00     0.009 C 
ATOM     10  CD1 LEU A  11      -4.487  -8.731  -2.897  1.00 59.00     0.009 C 
ENDBRANCH   7   8
ENDBRANCH   6   7
BRANCH   6  11
ATOM     11  N   LEU A  11      -2.464  -8.407   1.014  0.00  0.00    -0.346 N 
ATOM     12  H05 LEU A  11      -2.652  -7.460   1.310  0.00  0.00     0.163 HD
ATOM     13  C   ASP A  10      -2.045  -9.299   1.915  0.00  0.00     0.241 C 
ATOM     14  O   ASP A  10      -1.798 -10.468   1.628  0.00  0.00    -0.271 OA
BRANCH  13  15
ATOM     15  CA  ASP A  10      -1.877  -8.813   3.352  0.00  0.00     0.186 C 
BRANCH  15  16
ATOM     16  CB  ASP A  10      -3.207  -8.714   4.066  1.00 51.00     0.147 C 
BRANCH  16  17
ATOM     17  CG  ASP A  10      -3.047  -8.336   5.526  1.00 51.00     0.175 C 
ATOM     18  OD2 ASP A  10      -3.737  -7.398   5.976  1.00 51.00    -0.648 OA
ATOM     19  OD1 ASP A  10      -2.231  -8.978   6.221  1.00 51.00    -0.648 OA
ENDBRANCH  16  17
ENDBRANCH  15  16
BRANCH  15  20
ATOM     20  N   ASP A  10      -1.203  -7.523   3.270  0.00  0.00    -0.346 N 
ATOM     21  C   GLY A   9       0.061  -7.416   2.853  0.00  0.00     0.236 C 
ATOM     22  O   GLY A   9       0.733  -8.388   2.513  0.00  0.00    -0.272 OA
ATOM     23  H03 ASP A  10      -1.705  -6.688   3.536  0.00  0.00     0.163 HD
BRANCH  21  24
ATOM     24  CA  GLY A   9       0.665  -6.016   2.808  0.00  0.00     0.225 C 
BRANCH  24  25
ATOM     25  N   GLY A   9      -0.191  -5.009   2.192  0.00  0.00    -0.351 N 
ATOM     26  C   ARG A   8      -0.674  -5.159   0.956  0.00  0.00     0.240 C 
ATOM     27  O   ARG A   8      -0.431  -6.145   0.263  0.00  0.00    -0.271 OA
ATOM     28  H14 GLY A   9      -0.425  -4.176   2.714  0.00  0.00     0.163 HD
BRANCH  26  29
ATOM     29  CA  ARG A   8      -1.559  -4.042   0.413  0.00  0.00     0.176 C 
BRANCH  29  30
ATOM     30  N   ARG A   8      -2.518  -3.713   1.461  0.00  0.00    -0.346 N 
ATOM     31  C   LEU A   7      -3.448  -4.585   1.861  0.00  0.00     0.241 C 
ATOM     32  O   LEU A   7      -3.556  -5.709   1.377  0.00  0.00    -0.271 OA
ATOM     33  H12 ARG A   8      -2.478  -2.802   1.896  0.00  0.00     0.163 HD
BRANCH  31  34
ATOM     34  CA  LEU A   7      -4.398  -4.134   2.965  0.00  0.00     0.177 C 
BRANCH  34  35
ATOM     35  CB  LEU A   7      -5.571  -3.359   2.310  1.00 59.00     0.038 C 
BRANCH  35  36
ATOM     36  CG  LEU A   7      -6.922  -3.417   3.027  1.00 59.00    -0.020 C 
ATOM     37  CD1 LEU A   7      -7.354  -4.860   3.244  1.00 59.00     0.009 C 
ATOM     38  CD2 LEU A   7      -6.839  -2.737   4.384  1.00 59.00     0.009 C 
ENDBRANCH  35  36
ENDBRANCH  34  35
BRANCH  34  39
ATOM     39  N   LEU A   7      -3.835  -3.314   4.032  0.00  0.00    -0.346 N 
ATOM     40  H06 LEU A   7      -4.110  -2.345   4.105  0.00  0.00     0.163 HD
ATOM     41  C   ASN A   6      -2.966  -3.812   4.915  0.00  0.00     0.241 C 
ATOM     42  O   ASN A   6      -2.586  -4.981   4.888  0.00  0.00    -0.271 OA
BRANCH  41  43
ATOM     43  CA  ASN A   6      -2.442  -2.863   5.989  0.00  0.00     0.185 C 
BRANCH  43  44
ATOM     44  CB  ASN A   6      -3.502  -2.650   7.069  1.00  0.00     0.137 C 
BRANCH  44  45
ATOM     45  CG  ASN A   6      -3.763  -3.902   7.883  1.00  0.00     0.217 C 
ATOM     46  OD1 ASN A   6      -4.837  -4.065   8.462  1.00  0.00    -0.274 OA
ATOM     47  ND2 ASN A   6      -2.779  -4.792   7.929  1.00  0.00    -0.370 N 
ATOM     48  H04 ASN A   6      -2.895  -5.646   8.456  1.00  0.00     0.159 HD
ATOM     49  H05 ASN A   6      -1.915  -4.615   7.437  1.00  0.00     0.159 HD
ENDBRANCH  44  45
ENDBRANCH  43  44
BRANCH  43  50
ATOM     50  N   ASN A   6      -2.042  -1.588   5.404  0.00  0.00    -0.346 N 
ATOM     51  C   PRO A   5      -1.163  -1.520   4.401  0.00  0.00     0.241 C 
ATOM     52  O   PRO A   5      -0.637  -2.517   3.910  0.00  0.00    -0.271 OA
ATOM     53  H07 ASN A   6      -2.440  -0.734   5.767  0.00  0.00     0.163 HD
BRANCH  51  54
ATOM     54  CA  PRO A   5      -0.819  -0.134   3.867  0.00  0.00     0.179 C 
ATOM     55  CB  PRO A   5      -0.115   0.747   4.876  1.00 50.00     0.037 C 
ATOM     56  CG  PRO A   5      -1.231   1.443   5.622  1.00 50.00     0.022 C 
ATOM     57  CD  PRO A   5      -2.286   1.641   4.548  1.00 50.00     0.127 C 
ATOM     58  N   PRO A   5      -2.089   0.539   3.618  0.00  0.00    -0.337 N 
ATOM     59  C   VAL A   4      -2.966   0.075   2.724  0.00  0.00     0.243 C 
ATOM     60  O   VAL A   4      -2.763  -0.938   2.059  0.00  0.00    -0.271 OA
BRANCH  59  61
ATOM     61  CA  VAL A   4      -4.262   0.860   2.546  0.00  0.00     0.180 C 
BRANCH  61  62
ATOM     62  CB  VAL A   4      -3.999   2.138   1.751  1.00 73.00     0.009 C 
ATOM     63  CG1 VAL A   4      -5.290   2.910   1.522  1.00 73.00     0.012 C 
ATOM     64  CG2 VAL A   4      -3.029   3.038   2.501  1.00 73.00     0.012 C 
ENDBRANCH  61  62
BRANCH  61  65
ATOM     65  N   VAL A   4      -4.805   1.129   3.872  0.00  0.00    -0.346 N 
ATOM     66  C   GLY A   3      -5.243   0.148   4.665  0.00  0.00     0.236 C 
ATOM     67  O   GLY A   3      -5.217  -1.035   4.333  0.00  0.00    -0.272 OA
ATOM     68  H03 VAL A   4      -4.851   2.083   4.200  0.00  0.00     0.163 HD
BRANCH  66  69
ATOM     69  CA  GLY A   3      -5.791   0.546   6.031  0.00  0.00     0.225 C 
BRANCH  69  70
ATOM     70  N   GLY A   3      -5.086   1.648   6.676  0.00  0.00    -0.351 N 
ATOM     71  H07 GLY A   3      -5.584   2.506   6.867  0.00  0.00     0.163 HD
ATOM     72  C   ASN A   2      -3.800   1.553   7.020  0.00  0.00     0.241 C 
ATOM     73  O   ASN A   2      -3.131   0.542   6.818  0.00  0.00    -0.271 OA
BRANCH  72  74
ATOM     74  CA  ASN A   2      -3.165   2.768   7.688  0.00  0.00     0.185 C 
BRANCH  74  75
ATOM     75  N   ASN A   2      -4.220   3.755   7.887  0.00  0.00    -0.346 N 
ATOM     76  C   GLY A   1      -4.746   4.436   6.866  0.00  0.00     0.246 C 
ATOM     77  O   GLY A   1      -4.379   4.279   5.703  0.00  0.00    -0.272 OA
ATOM     78  H05 ASN A   2      -4.562   3.928   8.822  0.00  0.00     0.163 HD
BRANCH  76  79
ATOM     79  CA  GLY A   1      -5.845   5.443   7.190  0.00  0.00     0.368 C 
BRANCH  79  80
ATOM     80  N   GLY A   1      -5.680   5.847   8.582  0.00  0.00     0.087 N 
ATOM     81  H02 GLY A   1      -5.266   5.090   9.106  0.00  0.00     0.313 HD
ATOM     82  H01 GLY A   1      -6.581   6.076   8.976  0.00  0.00     0.313 HD
ENDBRANCH  79  80
ENDBRANCH  76  79
ENDBRANCH  74  75
BRANCH  74  83
ATOM     83  CB  ASN A   2      -2.496   2.391   8.996  1.00  0.00     0.137 C 
BRANCH  83  84
ATOM     84  CG  ASN A   2      -3.433   1.693   9.961  1.00  0.00     0.217 C 
ATOM     85  ND2 ASN A   2      -4.672   1.481   9.533  1.00  0.00    -0.370 N 
ATOM     86  H04 ASN A   2      -5.341   1.020  10.132  1.00  0.00     0.159 HD
ATOM     87  H06 ASN A   2      -4.945   1.781   8.608  1.00  0.00     0.159 HD
ATOM     88  OD1 ASN A   2      -3.046   1.349  11.078  1.00  0.00    -0.274 OA
ENDBRANCH  83  84
ENDBRANCH  74  83
ENDBRANCH  72  74
ENDBRANCH  69  70
ENDBRANCH  66  69
ENDBRANCH  61  65
ENDBRANCH  59  61
ENDBRANCH  51  54
ENDBRANCH  43  50
ENDBRANCH  41  43
ENDBRANCH  34  39
ENDBRANCH  31  34
ENDBRANCH  29  30
BRANCH  29  89
ATOM     89  CB  ARG A   8      -0.739  -2.836   0.002  1.00  0.00     0.036 C 
BRANCH  89  90
ATOM     90  CG  ARG A   8      -1.565  -1.711  -0.599  1.00  0.00     0.023 C 
BRANCH  90  91
ATOM     91  CD  ARG A   8      -2.054  -2.069  -1.994  1.00  0.00     0.138 C 
BRANCH  91  92
ATOM     92  NE  ARG A   8      -2.808  -0.979  -2.605  1.00  0.00    -0.227 N 
ATOM     93  CZ  ARG A   8      -3.381  -1.047  -3.803  1.00  0.00     0.665 C 
ATOM     94  NH1 ARG A   8      -3.283  -2.157  -4.523  1.00  0.00    -0.235 N 
ATOM     95  NH2 ARG A   8      -4.048  -0.005  -4.278  1.00  0.00    -0.235 N 
ATOM     96  H09 ARG A   8      -3.718  -2.208  -5.433  1.00  0.00     0.174 HD
ATOM     97  H10 ARG A   8      -2.774  -2.951  -4.161  1.00  0.00     0.174 HD
ATOM     98  H13 ARG A   8      -4.483  -0.056  -5.188  1.00  0.00     0.174 HD
ATOM     99  H11 ARG A   8      -4.122   0.840  -3.730  1.00  0.00     0.174 HD
ATOM    100  H08 ARG A   8      -2.900  -0.118  -2.085  1.00  0.00     0.177 HD
ENDBRANCH  91  92
ENDBRANCH  90  91
ENDBRANCH  89  90
ENDBRANCH  29  89
ENDBRANCH  26  29
ENDBRANCH  24  25
ENDBRANCH  21  24
ENDBRANCH  15  20
ENDBRANCH  13  15
ENDBRANCH   6  11
ENDBRANCH   3   6
ENDBRANCH   1   2
BRANCH   1 101
ATOM    101  C   GLN A  12       1.397 -10.603  -0.549  0.00  0.00     0.241 C 
ATOM    102  N   VAL A  13       1.166 -10.723   0.760  0.00  0.00    -0.346 N 
ATOM    103  H08 VAL A  13       0.770  -9.942   1.263  0.00  0.00     0.163 HD
ATOM    104  O   GLN A  12       1.876 -11.510  -1.226  0.00  0.00    -0.271 OA
BRANCH 102 105
ATOM    105  CA  VAL A  13       1.470 -11.953   1.483  0.00  0.00     0.180 C 
BRANCH 105 106
ATOM    106  C   VAL A  13       0.618 -13.074   0.895  0.00  0.00     0.241 C 
ATOM    107  O   VAL A  13       1.142 -14.134   0.560  0.00  0.00    -0.271 OA
ATOM    108  N   LEU A  14      -0.691 -12.844   0.769  0.00  0.00    -0.346 N 
ATOM    109  H10 LEU A  14      -1.064 -11.952   1.062  0.00  0.00     0.163 HD
BRANCH 108 110
ATOM    110  CA  LEU A  14      -1.597 -13.846   0.219  0.00  0.00     0.177 C 
BRANCH 110 111
ATOM    111  C   LEU A  14      -1.214 -14.265  -1.198  0.00  0.00     0.240 C 
ATOM    112  N   GLY A  15      -0.923 -13.292  -2.064  0.00  0.00    -0.351 N 
ATOM    113  H12 GLY A  15      -0.966 -12.331  -1.756  0.00  0.00     0.163 HD
ATOM    114  O   LEU A  14      -1.184 -15.455  -1.501  0.00  0.00    -0.271 OA
BRANCH 112 115
ATOM    115  CA  GLY A  15      -0.545 -13.580  -3.443  0.00  0.00     0.225 C 
BRANCH 115 116
ATOM    116  C   GLY A  15       0.766 -14.344  -3.599  0.00  0.00     0.236 C 
ATOM    117  O   GLY A  15       0.871 -15.219  -4.456  0.00  0.00    -0.272 OA
ATOM    118  N   GLN A  16       1.765 -14.018  -2.775  0.00  0.00    -0.346 N 
ATOM    119  H03 GLN A  16       1.620 -13.290  -2.090  0.00  0.00     0.163 HD
BRANCH 118 120
ATOM    120  CA  GLN A  16       3.060 -14.685  -2.838  0.00  0.00     0.177 C 
BRANCH 120 121
ATOM    121  C   GLN A  16       2.854 -16.112  -2.338  0.00  0.00     0.241 C 
ATOM    122  O   GLN A  16       3.360 -17.055  -2.943  0.00  0.00    -0.271 OA
ATOM    123  N   ARG A  17       2.115 -16.273  -1.238  0.00  0.00    -0.346 N 
ATOM    124  H09 ARG A  17       1.726 -15.459  -0.784  0.00  0.00     0.163 HD
BRANCH 123 125
ATOM    125  CA  ARG A  17       1.855 -17.593  -0.675  0.00  0.00     0.176 C 
BRANCH 125 126
ATOM    126  CB  ARG A  17       1.125 -17.467   0.665  1.00  0.00     0.036 C 
BRANCH 126 127
ATOM    127  CG  ARG A  17       1.921 -16.748   1.741  1.00  0.00     0.023 C 
BRANCH 127 128
ATOM    128  CD  ARG A  17       3.114 -17.576   2.193  1.00  0.00     0.138 C 
BRANCH 128 129
ATOM    129  NE  ARG A  17       2.706 -18.856   2.762  1.00  0.00    -0.227 N 
ATOM    130  H08 ARG A  17       2.716 -19.666   2.159  1.00  0.00     0.177 HD
ATOM    131  CZ  ARG A  17       2.322 -19.024   4.024  1.00  0.00     0.665 C 
ATOM    132  NH1 ARG A  17       2.295 -17.989   4.852  1.00  0.00    -0.235 N 
ATOM    133  NH2 ARG A  17       1.968 -20.227   4.454  1.00  0.00    -0.235 N 
ATOM    134  H11 ARG A  17       2.565 -17.073   4.524  1.00  0.00     0.174 HD
ATOM    135  H10 ARG A  17       2.004 -18.117   5.811  1.00  0.00     0.174 HD
ATOM    136  H12 ARG A  17       1.989 -21.015   3.823  1.00  0.00     0.174 HD
ATOM    137  H13 ARG A  17       1.677 -20.355   5.413  1.00  0.00     0.174 HD
ENDBRANCH 128 129
ENDBRANCH 127 128
ENDBRANCH 126 127
ENDBRANCH 125 126
BRANCH 125 138
ATOM    138  C   ARG A  17       1.043 -18.460  -1.632  0.00  0.00     0.241 C 
ATOM    139  N   VAL A  18      -0.028 -17.903  -2.202  0.00  0.00    -0.346 N 
ATOM    140  H14 VAL A  18      -0.258 -16.944  -1.983  0.00  0.00     0.163 HD
ATOM    141  O   ARG A  17       1.383 -19.621  -1.851  0.00  0.00    -0.271 OA
BRANCH 139 142
ATOM    142  CA  VAL A  18      -0.874 -18.642  -3.132  0.00  0.00     0.180 C 
BRANCH 142 143
ATOM    143  C   VAL A  18      -0.153 -19.125  -4.387  0.00  0.00     0.241 C 
ATOM    144  O   VAL A  18      -0.295 -20.283  -4.771  0.00  0.00    -0.271 OA
ATOM    145  N   GLY A  19       0.619 -18.242  -5.025  0.00  0.00    -0.351 N 
ATOM    146  H09 GLY A  19       0.696 -17.303  -4.661  0.00  0.00     0.163 HD
BRANCH 145 147
ATOM    147  CA  GLY A  19       1.354 -18.598  -6.234  0.00  0.00     0.225 C 
BRANCH 147 148
ATOM    148  C   GLY A  19       2.626 -19.421  -6.056  0.00  0.00     0.236 C 
ATOM    149  O   GLY A  19       2.967 -20.222  -6.923  0.00  0.00    -0.272 OA
ATOM    150  N   ARG A  20       3.328 -19.226  -4.936  0.00  0.00    -0.346 N 
ATOM    151  H03 ARG A  20       2.998 -18.553  -4.259  0.00  0.00     0.163 HD
BRANCH 150 152
ATOM    152  CA  ARG A  20       4.559 -19.960  -4.666  0.00  0.00     0.176 C 
BRANCH 152 153
ATOM    153  C   ARG A  20       4.278 -21.363  -4.136  0.00  0.00     0.241 C 
ATOM    154  N   THR A  21       3.412 -21.473  -3.126  0.00  0.00    -0.346 N 
ATOM    155  H14 THR A  21       2.981 -20.638  -2.755  0.00  0.00     0.163 HD
ATOM    156  O   ARG A  20       4.840 -22.334  -4.638  0.00  0.00    -0.271 OA
BRANCH 154 157
ATOM    157  CA  THR A  21       3.072 -22.766  -2.544  0.00  0.00     0.174 C 
BRANCH 157 158
ATOM    158  C   THR A  21       1.666 -22.882  -1.963  0.00  0.00     0.258 C 
ATOM    159  O   THR A  21       0.797 -23.499  -2.575  0.00  0.00    -0.305 OA
ENDBRANCH 157 158
BRANCH 157 160
ATOM    160  CB  THR A  21       4.081 -23.125  -1.415  1.00 49.00     0.143 C 
ATOM    161  CG2 THR A  21       5.498 -23.210  -1.962  1.00 49.00     0.042 C 
BRANCH 160 162
ATOM    162  OG1 THR A  21       4.034 -22.111  -0.404  1.00 49.00    -0.393 OA
ATOM    163  H07 THR A  21       4.697 -21.442  -0.590  1.00 49.00     0.210 HD
ENDBRANCH 160 162
ENDBRANCH 157 160
ENDBRANCH 154 157
ENDBRANCH 152 153
BRANCH 152 164
ATOM    164  CB  ARG A  20       5.430 -19.190  -3.668  1.00  0.00     0.036 C 
BRANCH 164 165
ATOM    165  CG  ARG A  20       6.321 -18.137  -4.305  1.00  0.00     0.023 C 
BRANCH 165 166
ATOM    166  CD  ARG A  20       5.530 -16.892  -4.672  1.00  0.00     0.138 C 
BRANCH 166 167
ATOM    167  NE  ARG A  20       5.019 -16.951  -6.038  1.00  0.00    -0.227 N 
ATOM    168  H09 ARG A  20       5.367 -17.682  -6.642  1.00  0.00     0.177 HD
ATOM    169  CZ  ARG A  20       4.125 -16.104  -6.538  1.00  0.00     0.665 C 
ATOM    170  NH2 ARG A  20       3.718 -16.235  -7.793  1.00  0.00    -0.235 N 
ATOM    171  NH1 ARG A  20       3.637 -15.131  -5.781  1.00  0.00    -0.235 N 
ATOM    172  H12 ARG A  20       4.089 -16.977  -8.369  1.00  0.00     0.174 HD
ATOM    173  H13 ARG A  20       3.037 -15.593  -8.173  1.00  0.00     0.174 HD
ATOM    174  H10 ARG A  20       2.956 -14.489  -6.161  1.00  0.00     0.174 HD
ATOM    175  H11 ARG A  20       3.946 -15.032  -4.824  1.00  0.00     0.174 HD
ENDBRANCH 166 167
ENDBRANCH 165 166
ENDBRANCH 164 165
ENDBRANCH 152 164
ENDBRANCH 150 152
ENDBRANCH 147 148
ENDBRANCH 145 147
ENDBRANCH 142 143
BRANCH 142 176
ATOM    176  CB  VAL A  18      -2.083 -17.777  -3.572  1.00 73.00     0.009 C 
ATOM    177  CG2 VAL A  18      -3.041 -18.589  -4.430  1.00 73.00     0.012 C 
ATOM    178  CG1 VAL A  18      -1.617 -16.575  -4.380  1.00 73.00     0.012 C 
ENDBRANCH 142 176
ENDBRANCH 139 142
ENDBRANCH 125 138
ENDBRANCH 123 125
ENDBRANCH 120 121
BRANCH 120 179
ATOM    179  CB  GLN A  16       4.107 -13.958  -2.018  1.00 35.00     0.044 C 
BRANCH 179 180
ATOM    180  CG  GLN A  16       5.526 -14.455  -2.246  1.00 35.00     0.105 C 
BRANCH 180 181
ATOM    181  CD  GLN A  16       5.838 -15.707  -1.451  1.00 35.00     0.215 C 
ATOM    182  NE2 GLN A  16       6.644 -16.590  -2.032  1.00 35.00    -0.370 N 
ATOM    183  H08 GLN A  16       7.013 -16.407  -2.954  1.00 35.00     0.159 HD
ATOM    184  H07 GLN A  16       6.888 -17.444  -1.551  1.00 35.00     0.159 HD
ATOM    185  OE1 GLN A  16       5.360 -15.879  -0.330  1.00 35.00    -0.274 OA
ENDBRANCH 180 181
ENDBRANCH 179 180
ENDBRANCH 120 179
ENDBRANCH 118 120
ENDBRANCH 115 116
ENDBRANCH 112 115
ENDBRANCH 110 111
BRANCH 110 186
ATOM    186  CB  LEU A  14      -3.038 -13.317   0.231  1.00 59.00     0.038 C 
BRANCH 186 187
ATOM    187  CG  LEU A  14      -3.792 -13.427   1.557  1.00 59.00    -0.020 C 
ATOM    188  CD1 LEU A  14      -3.791 -14.863   2.059  1.00 59.00     0.009 C 
ATOM    189  CD2 LEU A  14      -3.142 -12.553   2.618  1.00 59.00     0.009 C 
ENDBRANCH 186 187
ENDBRANCH 110 186
ENDBRANCH 108 110
ENDBRANCH 105 106
BRANCH 105 190
ATOM    190  CB  VAL A  13       1.207 -11.827   2.985  1.00 73.00     0.009 C 
ATOM    191  CG2 VAL A  13       2.130 -10.792   3.610  1.00 73.00     0.012 C 
ATOM    192  CG1 VAL A  13       1.441 -13.161   3.677  1.00 73.00     0.012 C 
ENDBRANCH 105 190
ENDBRANCH 102 105
ENDBRANCH   1 101
BRANCH   1 193
ATOM    193  CB  GLN A  12       2.155  -8.252  -0.957  1.00 35.00     0.044 C 
BRANCH 193 194
ATOM    194  CG  GLN A  12       3.433  -8.532  -1.731  1.00 35.00     0.105 C 
BRANCH 194 195
ATOM    195  CD  GLN A  12       4.329  -9.535  -1.030  1.00 35.00     0.215 C 
ATOM    196  OE1 GLN A  12       3.867 -10.575  -0.561  1.00 35.00    -0.274 OA
ATOM    197  NE2 GLN A  12       5.619  -9.223  -0.957  1.00 35.00    -0.370 N 
ATOM    198  H06 GLN A  12       6.266  -9.851  -0.502  1.00 35.00     0.159 HD
ATOM    199  H07 GLN A  12       5.953  -8.358  -1.357  1.00 35.00     0.159 HD
ENDBRANCH 194 195
ENDBRANCH 193 194
ENDBRANCH   1 193
TORSDOF 76
