REMARK WARNING: 32 MAX_TORS EXCEEDED!!!
REMARK  51 active torsions:
REMARK  status: ('A' for Active; 'I' for Inactive)
REMARK    1  A    between atoms: N_1  and  CA_2 
REMARK    2  A    between atoms: CA_2  and  C_3 
REMARK       I    between atoms: C_3  and  N_7 
REMARK    3  A    between atoms: N_7  and  CA_8 
REMARK    4  A    between atoms: CA_8  and  C_9 
REMARK    5  A    between atoms: CA_8  and  CB_11 
REMARK       I    between atoms: C_9  and  N_18 
REMARK    6  A    between atoms: CB_11  and  CG_12 
REMARK       I    between atoms: CG_12  and  ND2_13 
REMARK    7  A    between atoms: N_18  and  CA_19 
REMARK    8  A    between atoms: CA_19  and  C_20 
REMARK       I    between atoms: C_20  and  N_23 
REMARK    9  A    between atoms: N_23  and  CA_24 
REMARK   10  A    between atoms: CA_24  and  C_25 
REMARK   11  A    between atoms: CA_24  and  CB_27 
REMARK       I    between atoms: C_25  and  N_31 
REMARK   12  A    between atoms: CA_32  and  C_33 
REMARK       I    between atoms: C_33  and  N_38 
REMARK   13  A    between atoms: N_38  and  CA_39 
REMARK   14  A    between atoms: CA_39  and  C_40 
REMARK   15  A    between atoms: CA_39  and  CB_42 
REMARK       I    between atoms: C_40  and  N_49 
REMARK   16  A    between atoms: CB_42  and  CG_43 
REMARK       I    between atoms: CG_43  and  ND2_44 
REMARK   17  A    between atoms: N_49  and  CA_50 
REMARK   18  A    between atoms: CA_50  and  CB_53 
REMARK   19  A    between atoms: CA_50  and  C_51 
REMARK       I    between atoms: C_51  and  N_58 
REMARK   20  A    between atoms: CB_53  and  CG_54 
REMARK   21  A    between atoms: N_58  and  CA_59 
REMARK   22  A    between atoms: CA_59  and  CB_62 
REMARK   23  A    between atoms: CA_59  and  C_60 
REMARK       I    between atoms: C_60  and  N_75 
REMARK   24  A    between atoms: CB_62  and  CG_63 
REMARK   25  A    between atoms: CG_63  and  CD_64 
REMARK   26  A    between atoms: CD_64  and  NE_65 
REMARK       I    between atoms: NE_65  and  CZ_66 
REMARK       I    between atoms: CZ_66  and  NH1_67 
REMARK   27  A    between atoms: N_75  and  CA_76 
REMARK   28  A    between atoms: CA_76  and  C_77 
REMARK   29  A    between atoms: CA_81  and  CB_84 
REMARK   30  A    between atoms: CB_84  and  CG_85 
REMARK   31  A    between atoms: CA_90  and  CB_93 
REMARK   32  A    between atoms: CB_93  and  CG_94 
REMARK   33  A    between atoms: CA_112  and  C_113 
REMARK       I    between atoms: C_113  and  N_120 
REMARK   34  A    between atoms: N_120  and  CA_121 
REMARK   35  A    between atoms: CA_121  and  C_122 
REMARK   36  A    between atoms: CA_121  and  CB_124 
REMARK       I    between atoms: C_122  and  N_129 
REMARK   37  A    between atoms: CB_124  and  CG_125 
REMARK   38  A    between atoms: N_129  and  CA_130 
REMARK   39  A    between atoms: CA_130  and  C_131 
REMARK       I    between atoms: C_131  and  N_134 
REMARK   40  A    between atoms: N_134  and  CA_135 
REMARK   41  A    between atoms: CA_145  and  CB_148 
REMARK   42  A    between atoms: CB_148  and  CG_149 
REMARK   43  A    between atoms: CG_149  and  CD_150 
REMARK   44  A    between atoms: CD_150  and  NE_151 
REMARK       I    between atoms: NE_151  and  CZ_152 
REMARK       I    between atoms: CZ_152  and  NH1_153 
REMARK   45  A    between atoms: CA_162  and  CB_165 
REMARK   46  A    between atoms: CA_175  and  C_176 
REMARK       I    between atoms: C_176  and  N_190 
REMARK   47  A    between atoms: CZ_182  and  NH2_184 
REMARK   48  A    between atoms: N_190  and  CA_191 
REMARK   49  A    between atoms: CA_191  and  CB_194 
REMARK   50  A    between atoms: CA_191  and  C_192 
REMARK   51  A    between atoms: CB_194  and  OG1_196 
ROOT
ATOM      1  C   GLY A   9       1.154 -12.085   1.263  0.00  0.00     0.130 C 
ATOM      2  O   GLY A   9       0.738 -11.011   1.693  0.00  0.00    -0.347 OA
ATOM      3  N   ASP A  10       2.411 -12.257   0.845  0.00  0.00    -0.359 N 
ATOM      4  CA  ASP A  10       3.383 -11.170   0.872  0.00  0.00     0.185 C 
ATOM      5  C   ASP A  10       2.851  -9.909   0.200  0.00  0.00     0.241 C 
ATOM      6  O   ASP A  10       2.991  -8.816   0.745  0.00  0.00    -0.271 OA
ATOM      7  H03 ASP A  10       2.696 -13.163   0.501  0.00  0.00     0.162 HD
ATOM      8  N   LEU A  11       2.241 -10.055  -0.978  0.00  0.00    -0.346 N 
ATOM      9  CA  LEU A  11       1.695  -8.915  -1.706  0.00  0.00     0.177 C 
ATOM     10  C   LEU A  11       0.677  -8.255  -0.781  0.00  0.00     0.241 C 
ATOM     11  O   LEU A  11       0.677  -7.035  -0.636  0.00  0.00    -0.271 OA
ATOM     12  H05 LEU A  11       2.155 -10.979  -1.376  0.00  0.00     0.163 HD
ATOM     13  N   GLN A  12      -0.188  -9.057  -0.154  0.00  0.00    -0.346 N 
ATOM     14  CA  GLN A  12      -1.202  -8.531   0.753  0.00  0.00     0.177 C 
ATOM     15  C   GLN A  12      -0.638  -7.780   1.954  0.00  0.00     0.241 C 
ATOM     16  O   GLN A  12      -1.179  -6.747   2.344  0.00  0.00    -0.271 OA
ATOM     17  CB  GLN A  12      -2.096  -9.683   1.251  1.00 35.00     0.046 C 
ATOM     18  CG  GLN A  12      -1.359 -10.717   2.086  1.00 35.00     0.071 C 
ATOM     19  CD  GLN A  12      -1.049 -10.221   3.485  1.00 35.00     0.112 C 
ATOM     20  NE2 GLN A  12      -2.085  -9.804   4.205  1.00 35.00    -0.384 N 
ATOM     21  OE1 GLN A  12       0.105 -10.213   3.911  1.00 35.00    -0.348 OA
ATOM     22  H04 GLN A  12      -0.410 -10.926   1.592  1.00 35.00     0.224 HD
ATOM     23  H06 GLN A  12      -1.942  -9.462   5.145  1.00 35.00     0.157 HD
ATOM     24  H07 GLN A  12      -3.015  -9.829   3.813  1.00 35.00     0.157 HD
ATOM     25  H12 GLN A  12      -0.139 -10.053  -0.312  0.00  0.00     0.163 HD
ATOM     26  N   VAL A  13       0.445  -8.294   2.542  0.00  0.00    -0.346 N 
ATOM     27  CA  VAL A  13       1.066  -7.656   3.698  0.00  0.00     0.180 C 
ATOM     28  CB  VAL A  13       2.355  -8.338   4.134  1.00 73.00     0.012 C 
ATOM     29  CG1 VAL A  13       2.998  -7.564   5.275  1.00 73.00     0.012 C 
ATOM     30  CG2 VAL A  13       2.088  -9.758   4.608  1.00 73.00     0.014 C 
ATOM     31  H06 VAL A  13       1.107 -10.079   4.258  1.00 73.00     0.212 HD
ATOM     32  H08 VAL A  13       0.845  -9.147   2.177  0.00  0.00     0.163 HD
ENDROOT
BRANCH  27  33
ATOM     33  C   VAL A  13       1.332  -6.211   3.290  0.00  0.00     0.241 C 
ATOM     34  N   LEU A  14       1.936  -6.009   2.117  0.00  0.00    -0.346 N 
ATOM     35  H10 LEU A  14       2.191  -6.806   1.551  0.00  0.00     0.163 HD
ATOM     36  O   VAL A  13       0.993  -5.290   4.030  0.00  0.00    -0.271 OA
BRANCH  34  37
ATOM     37  CA  LEU A  14       2.238  -4.667   1.630  0.00  0.00     0.177 C 
BRANCH  37  38
ATOM     38  C   LEU A  14       0.990  -3.855   1.300  0.00  0.00     0.240 C 
ATOM     39  N   GLY A  15       0.015  -4.477   0.634  0.00  0.00    -0.351 N 
ATOM     40  H12 GLY A  15       0.136  -5.446   0.377  0.00  0.00     0.163 HD
ATOM     41  O   LEU A  14       0.913  -2.678   1.646  0.00  0.00    -0.271 OA
BRANCH  39  42
ATOM     42  CA  GLY A  15      -1.221  -3.794   0.267  0.00  0.00     0.225 C 
BRANCH  42  43
ATOM     43  C   GLY A  15      -2.013  -3.431   1.519  0.00  0.00     0.236 C 
ATOM     44  N   GLN A  16      -2.088  -4.353   2.483  0.00  0.00    -0.346 N 
ATOM     45  H03 GLN A  16      -1.626  -5.241   2.351  0.00  0.00     0.163 HD
ATOM     46  O   GLY A  15      -2.549  -2.329   1.611  0.00  0.00    -0.272 OA
BRANCH  44  47
ATOM     47  CA  GLN A  16      -2.820  -4.110   3.721  0.00  0.00     0.177 C 
ATOM     48  CB  GLN A  16      -2.913  -5.415   4.532  1.00 35.00     0.043 C 
ATOM     49  CG  GLN A  16      -3.720  -5.298   5.815  1.00 35.00     0.101 C 
ATOM     50  CD  GLN A  16      -3.841  -6.620   6.549  1.00 35.00     0.223 C 
ATOM     51  NE2 GLN A  16      -4.549  -6.608   7.673  1.00 35.00    -0.078 NA
ATOM     52  OE1 GLN A  16      -3.303  -7.636   6.111  1.00 35.00    -0.278 OA
ATOM     53  NH1 ARG A  20      -4.847  -6.224   8.631  1.00  0.00    -0.265 N 
ATOM     54  CZ  ARG A  20      -5.734  -6.055   7.660  1.00  0.00     0.517 A 
ATOM     55  H10 ARG A  20      -4.612  -6.086   9.604  1.00  0.00     0.181 HD
ATOM     56  NE  ARG A  20      -5.929  -4.846   7.141  1.00  0.00     0.163 N 
ATOM     57  H09 ARG A  20      -6.911  -4.647   7.271  1.00  0.00     0.323 HD
ATOM     58  CD  ARG A  20      -5.222  -3.645   7.573  1.00  0.00     0.277 C 
ATOM     59  CG  ARG A  20      -5.593  -2.433   6.734  1.00  0.00     0.033 C 
ATOM     60  CB  ARG A  20      -4.830  -1.197   7.181  1.00  0.00     0.036 C 
ATOM     61  CA  ARG A  20      -5.140   0.049   6.367  0.00  0.00     0.176 C 
ATOM     62  N   ARG A  20      -4.648  -0.074   4.999  0.00  0.00    -0.346 N 
ATOM     63  H03 ARG A  20      -3.872  -0.691   4.809  0.00  0.00     0.163 HD
ATOM     64  C   GLY A  19      -5.197   0.608   3.991  0.00  0.00     0.236 C 
ATOM     65  CA  GLY A  19      -4.601   0.402   2.602  0.00  0.00     0.225 C 
ATOM     66  O   GLY A  19      -6.144   1.376   4.147  0.00  0.00    -0.272 OA
ATOM     67  N   GLY A  19      -3.158   0.244   2.745  0.00  0.00    -0.351 N 
ATOM     68  H09 GLY A  19      -2.737  -0.648   2.529  0.00  0.00     0.163 HD
ATOM     69  C   VAL A  18      -2.379   1.248   3.154  0.00  0.00     0.241 C 
ATOM     70  O   VAL A  18      -2.821   2.361   3.433  0.00  0.00    -0.271 OA
ATOM     71  CA  VAL A  18      -0.883   0.970   3.267  0.00  0.00     0.180 C 
ATOM     72  N   VAL A  18      -0.536  -0.343   3.799  0.00  0.00    -0.346 N 
ATOM     73  C   ARG A  17      -0.589  -0.607   5.107  0.00  0.00     0.241 C 
ATOM     74  H14 VAL A  18      -0.248  -1.072   3.161  0.00  0.00     0.163 HD
ATOM     75  O   ARG A  17      -0.930   0.230   5.940  0.00  0.00    -0.271 OA
ATOM     76  CA  ARG A  17      -0.204  -2.015   5.551  0.00  0.00     0.176 C 
ATOM     77  N   ARG A  17      -0.886  -3.014   4.737  0.00  0.00    -0.346 N 
ATOM     78  C   GLN A  16      -2.214  -3.017   4.595  0.00  0.00     0.241 C 
ATOM     79  H07 ARG A  17      -0.340  -3.722   4.268  0.00  0.00     0.163 HD
ATOM     80  O   GLN A  16      -2.941  -2.187   5.135  0.00  0.00    -0.271 OA
BRANCH  54  81
ATOM     81  NH2 ARG A  20      -6.424  -7.091   7.204  1.00  0.00     0.158 N 
ATOM     82  H12 ARG A  20      -6.634  -7.718   7.967  1.00  0.00     0.320 HD
ATOM     83  H11 ARG A  20      -5.879  -7.579   6.507  1.00  0.00     0.320 HD
ENDBRANCH  54  81
BRANCH  61  84
ATOM     84  C   ARG A  20      -4.507   1.284   6.997  0.00  0.00     0.241 C 
ATOM     85  O   ARG A  20      -4.911   1.697   8.082  0.00  0.00    -0.271 OA
ATOM     86  N   THR A  21      -3.517   1.875   6.323  0.00  0.00    -0.346 N 
ATOM     87  H13 THR A  21      -3.228   1.490   5.435  0.00  0.00     0.163 HD
BRANCH  86  88
ATOM     88  CA  THR A  21      -2.842   3.062   6.835  0.00  0.00     0.174 C 
BRANCH  88  89
ATOM     89  CB  THR A  21      -1.916   2.726   8.015  1.00 49.00     0.143 C 
ATOM     90  CG2 THR A  21      -2.714   2.124   9.162  1.00 49.00     0.042 C 
BRANCH  89  91
ATOM     91  OG1 THR A  21      -0.922   1.783   7.596  1.00 49.00    -0.393 OA
ATOM     92  H07 THR A  21      -0.725   1.917   6.666  1.00 49.00     0.210 HD
ENDBRANCH  89  91
ENDBRANCH  88  89
BRANCH  88  93
ATOM     93  C   THR A  21      -2.030   3.729   5.729  0.00  0.00     0.258 C 
ATOM     94  O   THR A  21      -2.257   4.896   5.417  0.00  0.00    -0.305 OA
ENDBRANCH  88  93
ENDBRANCH  86  88
ENDBRANCH  61  84
BRANCH  71  95
ATOM     95  CB  VAL A  18      -0.254   1.164   1.859  1.00 73.00     0.009 C 
ATOM     96  CG1 VAL A  18      -0.691   2.488   1.250  1.00 73.00     0.012 C 
ATOM     97  CG2 VAL A  18       1.264   1.159   1.961  1.00 73.00     0.012 C 
ENDBRANCH  71  95
BRANCH  76  98
ATOM     98  CB  ARG A  17       1.311  -2.199   5.475  1.00  0.00     0.036 C 
BRANCH  98  99
ATOM     99  CG  ARG A  17       1.880  -2.092   4.069  1.00  0.00     0.023 C 
BRANCH  99 100
ATOM    100  CD  ARG A  17       2.160  -0.645   3.696  1.00  0.00     0.138 C 
BRANCH 100 101
ATOM    101  NE  ARG A  17       3.258  -0.082   4.474  1.00  0.00    -0.227 N 
ATOM    102  H09 ARG A  17       3.844  -0.719   4.994  1.00  0.00     0.177 HD
ATOM    103  CZ  ARG A  17       3.537   1.216   4.542  1.00  0.00     0.665 C 
ATOM    104  NH1 ARG A  17       2.797   2.089   3.872  1.00  0.00    -0.235 N 
ATOM    105  NH2 ARG A  17       4.557   1.638   5.277  1.00  0.00    -0.235 N 
ATOM    106  H11 ARG A  17       2.021   1.768   3.311  1.00  0.00     0.174 HD
ATOM    107  H10 ARG A  17       3.010   3.075   3.923  1.00  0.00     0.174 HD
ATOM    108  H12 ARG A  17       5.122   0.973   5.786  1.00  0.00     0.174 HD
ATOM    109  H13 ARG A  17       4.769   2.624   5.327  1.00  0.00     0.174 HD
ENDBRANCH 100 101
ENDBRANCH  99 100
ENDBRANCH  98  99
ENDBRANCH  76  98
ENDBRANCH  44  47
ENDBRANCH  42  43
ENDBRANCH  39  42
ENDBRANCH  37  38
BRANCH  37 110
ATOM    110  CB  LEU A  14       3.139  -4.751   0.388  1.00 59.00     0.038 C 
BRANCH 110 111
ATOM    111  CG  LEU A  14       4.634  -4.950   0.642  1.00 59.00    -0.020 C 
ATOM    112  CD2 LEU A  14       4.893  -6.300   1.294  1.00 59.00     0.009 C 
ATOM    113  CD1 LEU A  14       5.171  -3.867   1.566  1.00 59.00     0.009 C 
ENDBRANCH 110 111
ENDBRANCH  37 110
ENDBRANCH  34  37
ENDBRANCH  27  33
BRANCH   9 114
ATOM    114  CB  LEU A  11       1.065  -9.331  -3.019  1.00 59.00     0.038 C 
BRANCH 114 115
ATOM    115  CG  LEU A  11       0.478  -8.203  -3.869  1.00 59.00    -0.020 C 
ATOM    116  CD2 LEU A  11      -0.183  -8.762  -5.119  1.00 59.00     0.009 C 
ATOM    117  CD1 LEU A  11       1.568  -7.234  -4.302  1.00 59.00     0.009 C 
ENDBRANCH 114 115
ENDBRANCH   9 114
BRANCH   1 118
ATOM    118  CA  GLY A   9       0.223 -13.290   1.190  0.00  0.00     0.206 C 
BRANCH 118 119
ATOM    119  N   GLY A   9       0.171 -13.737  -0.197  0.00  0.00    -0.352 N 
ATOM    120  C   ARG A   8      -0.236 -12.930  -1.180  0.00  0.00     0.240 C 
ATOM    121  O   ARG A   8      -0.590 -11.770  -0.983  0.00  0.00    -0.271 OA
ATOM    122  H14 GLY A   9       0.450 -14.682  -0.420  0.00  0.00     0.162 HD
BRANCH 120 123
ATOM    123  CA  ARG A   8      -0.250 -13.503  -2.593  0.00  0.00     0.176 C 
BRANCH 123 124
ATOM    124  CB  ARG A   8      -1.473 -14.381  -2.810  1.00  0.00     0.036 C 
BRANCH 124 125
ATOM    125  CG  ARG A   8      -1.602 -14.917  -4.226  1.00  0.00     0.023 C 
BRANCH 125 126
ATOM    126  CD  ARG A   8      -1.924 -13.804  -5.211  1.00  0.00     0.138 C 
BRANCH 126 127
ATOM    127  NE  ARG A   8      -2.037 -14.300  -6.579  1.00  0.00    -0.227 N 
ATOM    128  CZ  ARG A   8      -3.140 -14.838  -7.089  1.00  0.00     0.665 C 
ATOM    129  NH1 ARG A   8      -4.229 -14.954  -6.341  1.00  0.00    -0.235 N 
ATOM    130  NH2 ARG A   8      -3.150 -15.262  -8.346  1.00  0.00    -0.235 N 
ATOM    131  H09 ARG A   8      -5.067 -15.364  -6.729  1.00  0.00     0.174 HD
ATOM    132  H10 ARG A   8      -4.221 -14.632  -5.384  1.00  0.00     0.174 HD
ATOM    133  H13 ARG A   8      -3.987 -15.672  -8.734  1.00  0.00     0.174 HD
ATOM    134  H11 ARG A   8      -2.320 -15.175  -8.915  1.00  0.00     0.174 HD
ATOM    135  H08 ARG A   8      -1.225 -14.230  -7.176  1.00  0.00     0.177 HD
ENDBRANCH 126 127
ENDBRANCH 125 126
ENDBRANCH 124 125
ENDBRANCH 123 124
BRANCH 123 136
ATOM    136  N   ARG A   8       0.984 -14.252  -2.806  0.00  0.00    -0.346 N 
ATOM    137  H12 ARG A   8       0.936 -15.252  -2.936  0.00  0.00     0.163 HD
ATOM    138  C   LEU A   7       2.175 -13.649  -2.834  0.00  0.00     0.241 C 
ATOM    139  O   LEU A   7       2.310 -12.437  -2.683  0.00  0.00    -0.271 OA
BRANCH 138 140
ATOM    140  CA  LEU A   7       3.398 -14.531  -3.064  0.00  0.00     0.177 C 
BRANCH 140 141
ATOM    141  CB  LEU A   7       3.591 -14.802  -4.552  1.00 59.00     0.038 C 
BRANCH 141 142
ATOM    142  CG  LEU A   7       2.476 -15.581  -5.253  1.00 59.00    -0.020 C 
ATOM    143  CD1 LEU A   7       1.318 -14.660  -5.606  1.00 59.00     0.009 C 
ATOM    144  CD2 LEU A   7       2.989 -16.212  -6.538  1.00 59.00     0.009 C 
ENDBRANCH 141 142
ENDBRANCH 140 141
BRANCH 140 145
ATOM    145  N   LEU A   7       3.251 -15.777  -2.321  0.00  0.00    -0.346 N 
ATOM    146  H06 LEU A   7       3.202 -16.649  -2.828  0.00  0.00     0.163 HD
ATOM    147  C   ASN A   6       3.179 -15.796  -0.987  0.00  0.00     0.241 C 
ATOM    148  O   ASN A   6       3.230 -14.775  -0.305  0.00  0.00    -0.271 OA
BRANCH 147 149
ATOM    149  CA  ASN A   6       3.026 -17.157  -0.316  0.00  0.00     0.185 C 
BRANCH 149 150
ATOM    150  N   ASN A   6       2.027 -17.953  -1.020  0.00  0.00    -0.346 N 
ATOM    151  C   PRO A   5       0.735 -17.616  -1.025  0.00  0.00     0.241 C 
ATOM    152  O   PRO A   5       0.306 -16.622  -0.443  0.00  0.00    -0.271 OA
ATOM    153  H07 ASN A   6       2.320 -18.782  -1.517  0.00  0.00     0.163 HD
BRANCH 151 154
ATOM    154  CA  PRO A   5      -0.220 -18.522  -1.795  0.00  0.00     0.179 C 
ATOM    155  N   PRO A   5       0.306 -18.947  -3.087  0.00  0.00    -0.337 N 
ATOM    156  C   VAL A   4       0.650 -18.065  -4.029  0.00  0.00     0.243 C 
ATOM    157  CD  PRO A   5       0.331 -20.357  -3.254  1.00 50.00     0.127 C 
ATOM    158  O   VAL A   4       0.547 -16.850  -3.872  0.00  0.00    -0.271 OA
ATOM    159  CG  PRO A   5      -0.636 -20.852  -2.194  1.00 50.00     0.022 C 
ATOM    160  CB  PRO A   5      -0.449 -19.856  -1.072  1.00 50.00     0.037 C 
BRANCH 156 161
ATOM    161  CA  VAL A   4       1.188 -18.622  -5.343  0.00  0.00     0.180 C 
BRANCH 161 162
ATOM    162  CB  VAL A   4      -0.015 -19.159  -6.165  1.00 73.00     0.009 C 
ATOM    163  CG1 VAL A   4      -1.125 -18.121  -6.239  1.00 73.00     0.012 C 
ATOM    164  CG2 VAL A   4       0.427 -19.492  -7.582  1.00 73.00     0.012 C 
ENDBRANCH 161 162
BRANCH 161 165
ATOM    165  N   VAL A   4       2.205 -19.657  -5.196  0.00  0.00    -0.346 N 
ATOM    166  H03 VAL A   4       2.014 -20.587  -5.540  0.00  0.00     0.163 HD
ATOM    167  C   GLY A   3       3.383 -19.407  -4.618  0.00  0.00     0.236 C 
ATOM    168  O   GLY A   3       3.685 -18.301  -4.177  0.00  0.00    -0.272 OA
BRANCH 167 169
ATOM    169  CA  GLY A   3       4.370 -20.566  -4.518  0.00  0.00     0.225 C 
BRANCH 169 170
ATOM    170  N   GLY A   3       5.705 -19.983  -4.439  0.00  0.00    -0.351 N 
ATOM    171  H07 GLY A   3       6.111 -19.569  -5.266  0.00  0.00     0.163 HD
ATOM    172  C   ASN A   2       6.404 -19.982  -3.302  0.00  0.00     0.241 C 
ATOM    173  O   ASN A   2       5.975 -20.467  -2.258  0.00  0.00    -0.271 OA
BRANCH 172 174
ATOM    174  CA  ASN A   2       7.790 -19.344  -3.336  0.00  0.00     0.185 C 
BRANCH 174 175
ATOM    175  N   ASN A   2       8.262 -18.768  -4.590  0.00  0.00    -0.346 N 
ATOM    176  C   GLY A   1       8.963 -19.484  -5.472  0.00  0.00     0.246 C 
ATOM    177  O   GLY A   1       9.253 -20.664  -5.288  0.00  0.00    -0.272 OA
ATOM    178  H05 ASN A   2       8.053 -17.802  -4.797  0.00  0.00     0.163 HD
BRANCH 176 179
ATOM    179  CA  GLY A   1       9.406 -18.779  -6.750  0.00  0.00     0.368 C 
BRANCH 179 180
ATOM    180  N   GLY A   1      10.834 -19.020  -6.921  0.00  0.00     0.087 N 
ATOM    181  H01 GLY A   1      11.010 -20.015  -6.924  0.00  0.00     0.313 HD
ATOM    182  H02 GLY A   1      11.141 -18.620  -7.796  0.00  0.00     0.313 HD
ENDBRANCH 179 180
ENDBRANCH 176 179
ENDBRANCH 174 175
BRANCH 174 183
ATOM    183  CB  ASN A   2       7.830 -18.234  -2.246  1.00  0.00     0.137 C 
BRANCH 183 184
ATOM    184  CG  ASN A   2       6.866 -17.107  -2.556  1.00  0.00     0.217 C 
ATOM    185  ND2 ASN A   2       6.983 -16.542  -3.751  1.00  0.00    -0.370 N 
ATOM    186  H06 ASN A   2       7.687 -16.869  -4.397  1.00  0.00     0.159 HD
ATOM    187  H04 ASN A   2       6.368 -15.785  -4.014  1.00  0.00     0.159 HD
ATOM    188  OD1 ASN A   2       6.027 -16.749  -1.730  1.00  0.00    -0.274 OA
ENDBRANCH 183 184
ENDBRANCH 174 183
ENDBRANCH 172 174
ENDBRANCH 169 170
ENDBRANCH 167 169
ENDBRANCH 161 165
ENDBRANCH 156 161
ENDBRANCH 151 154
ENDBRANCH 149 150
BRANCH 149 189
ATOM    189  CB  ASN A   6       4.367 -17.884  -0.272  1.00  0.00     0.137 C 
BRANCH 189 190
ATOM    190  CG  ASN A   6       4.310 -19.160   0.543  1.00  0.00     0.217 C 
ATOM    191  ND2 ASN A   6       4.121 -20.286  -0.134  1.00  0.00    -0.370 N 
ATOM    192  H05 ASN A   6       4.024 -20.261  -1.139  1.00  0.00     0.159 HD
ATOM    193  H04 ASN A   6       4.074 -21.168   0.356  1.00  0.00     0.159 HD
ATOM    194  OD1 ASN A   6       4.434 -19.132   1.767  1.00  0.00    -0.274 OA
ENDBRANCH 189 190
ENDBRANCH 149 189
ENDBRANCH 147 149
ENDBRANCH 140 145
ENDBRANCH 138 140
ENDBRANCH 123 136
ENDBRANCH 120 123
ENDBRANCH 118 119
ENDBRANCH   1 118
BRANCH   4 195
ATOM    195  CB  ASP A  10       4.688 -11.608   0.197  1.00 51.00     0.147 C 
BRANCH 195 196
ATOM    196  CG  ASP A  10       5.473 -12.601   1.031  1.00 51.00     0.175 C 
ATOM    197  OD2 ASP A  10       6.419 -13.212   0.494  1.00 51.00    -0.648 OA
ATOM    198  OD1 ASP A  10       5.140 -12.769   2.224  1.00 51.00    -0.648 OA
ENDBRANCH 195 196
ENDBRANCH   4 195
TORSDOF 51
