REMARK WARNING: 32 MAX_TORS EXCEEDED!!!
REMARK  76 active torsions:
REMARK  status: ('A' for Active; 'I' for Inactive)
REMARK    1  A    between atoms: N_1  and  CA_2 
REMARK    2  A    between atoms: CA_2  and  C_3 
REMARK       I    between atoms: C_3  and  N_7 
REMARK    3  A    between atoms: N_7  and  CA_8 
REMARK    4  A    between atoms: CA_8  and  CB_11 
REMARK    5  A    between atoms: CA_8  and  C_9 
REMARK       I    between atoms: C_9  and  N_18 
REMARK    6  A    between atoms: CB_11  and  CG_12 
REMARK       I    between atoms: CG_12  and  ND2_13 
REMARK    7  A    between atoms: N_18  and  CA_19 
REMARK    8  A    between atoms: CA_19  and  C_20 
REMARK       I    between atoms: C_20  and  N_23 
REMARK    9  A    between atoms: N_23  and  CA_24 
REMARK   10  A    between atoms: CA_24  and  CB_27 
REMARK   11  A    between atoms: CA_24  and  C_25 
REMARK       I    between atoms: C_25  and  N_31 
REMARK   12  A    between atoms: CA_32  and  C_33 
REMARK       I    between atoms: C_33  and  N_38 
REMARK   13  A    between atoms: N_38  and  CA_39 
REMARK   14  A    between atoms: CA_39  and  CB_42 
REMARK   15  A    between atoms: CA_39  and  C_40 
REMARK       I    between atoms: C_40  and  N_49 
REMARK   16  A    between atoms: CB_42  and  CG_43 
REMARK       I    between atoms: CG_43  and  ND2_44 
REMARK   17  A    between atoms: N_49  and  CA_50 
REMARK   18  A    between atoms: CA_50  and  CB_53 
REMARK   19  A    between atoms: CA_50  and  C_51 
REMARK       I    between atoms: C_51  and  N_58 
REMARK   20  A    between atoms: CB_53  and  CG_54 
REMARK   21  A    between atoms: N_58  and  CA_59 
REMARK   22  A    between atoms: CA_59  and  CB_62 
REMARK   23  A    between atoms: CA_59  and  C_60 
REMARK       I    between atoms: C_60  and  N_75 
REMARK   24  A    between atoms: CB_62  and  CG_63 
REMARK   25  A    between atoms: CG_63  and  CD_64 
REMARK   26  A    between atoms: CD_64  and  NE_65 
REMARK       I    between atoms: NE_65  and  CZ_66 
REMARK       I    between atoms: CZ_66  and  NH2_68 
REMARK       I    between atoms: CZ_66  and  NH1_67 
REMARK   27  A    between atoms: N_75  and  CA_76 
REMARK   28  A    between atoms: CA_76  and  C_77 
REMARK       I    between atoms: C_77  and  N_80 
REMARK   29  A    between atoms: N_80  and  CA_81 
REMARK   30  A    between atoms: CA_81  and  CB_84 
REMARK   31  A    between atoms: CA_81  and  C_82 
REMARK       I    between atoms: C_82  and  N_89 
REMARK   32  A    between atoms: CB_84  and  CG_85 
REMARK   33  A    between atoms: N_89  and  CA_90 
REMARK   34  A    between atoms: CA_90  and  CB_93 
REMARK   35  A    between atoms: CA_90  and  C_91 
REMARK       I    between atoms: C_91  and  N_98 
REMARK   36  A    between atoms: CB_93  and  CG_94 
REMARK   37  A    between atoms: N_98  and  CA_99 
REMARK   38  A    between atoms: CA_99  and  CB_102 
REMARK   39  A    between atoms: CA_99  and  C_100 
REMARK       I    between atoms: C_100  and  N_110 
REMARK   40  A    between atoms: CB_102  and  CG_103 
REMARK   41  A    between atoms: CG_103  and  CD_104 
REMARK       I    between atoms: CD_104  and  NE2_105 
REMARK   42  A    between atoms: N_110  and  CA_111 
REMARK   43  A    between atoms: CA_111  and  C_112 
REMARK   44  A    between atoms: CA_111  and  CB_114 
REMARK       I    between atoms: C_112  and  N_118 
REMARK   45  A    between atoms: N_118  and  CA_119 
REMARK   46  A    between atoms: CA_119  and  CB_122 
REMARK   47  A    between atoms: CA_119  and  C_120 
REMARK       I    between atoms: C_120  and  N_127 
REMARK   48  A    between atoms: CB_122  and  CG_123 
REMARK   49  A    between atoms: N_127  and  CA_128 
REMARK   50  A    between atoms: CA_128  and  C_129 
REMARK       I    between atoms: C_129  and  N_132 
REMARK   51  A    between atoms: N_132  and  CA_133 
REMARK   52  A    between atoms: CA_133  and  C_134 
REMARK   53  A    between atoms: CA_133  and  CB_136 
REMARK       I    between atoms: C_134  and  N_144 
REMARK   54  A    between atoms: CB_136  and  CG_137 
REMARK   55  A    between atoms: CG_137  and  CD_138 
REMARK       I    between atoms: CD_138  and  NE2_139 
REMARK   56  A    between atoms: N_144  and  CA_145 
REMARK   57  A    between atoms: CA_145  and  CB_148 
REMARK   58  A    between atoms: CA_145  and  C_146 
REMARK       I    between atoms: C_146  and  N_161 
REMARK   59  A    between atoms: CB_148  and  CG_149 
REMARK   60  A    between atoms: CG_149  and  CD_150 
REMARK   61  A    between atoms: CD_150  and  NE_151 
REMARK       I    between atoms: NE_151  and  CZ_152 
REMARK       I    between atoms: CZ_152  and  NH1_153 
REMARK       I    between atoms: CZ_152  and  NH2_154 
REMARK   62  A    between atoms: N_161  and  CA_162 
REMARK   63  A    between atoms: CA_162  and  CB_165 
REMARK   64  A    between atoms: CA_162  and  C_163 
REMARK       I    between atoms: C_163  and  N_169 
REMARK   65  A    between atoms: N_169  and  CA_170 
REMARK   66  A    between atoms: CA_170  and  C_171 
REMARK       I    between atoms: C_171  and  N_174 
REMARK   67  A    between atoms: N_174  and  CA_175 
REMARK   68  A    between atoms: CA_175  and  CB_178 
REMARK   69  A    between atoms: CA_175  and  C_176 
REMARK       I    between atoms: C_176  and  N_190 
REMARK   70  A    between atoms: CB_178  and  CG_179 
REMARK   71  A    between atoms: CG_179  and  CD_180 
REMARK   72  A    between atoms: CD_180  and  NE_181 
REMARK       I    between atoms: NE_181  and  CZ_182 
REMARK       I    between atoms: CZ_182  and  NH1_183 
REMARK   73  A    between atoms: N_190  and  CA_191 
REMARK   74  A    between atoms: CA_191  and  CB_194 
REMARK   75  A    between atoms: CA_191  and  C_192 
REMARK   76  A    between atoms: CB_194  and  OG1_196 
ROOT
ATOM      1  C   LEU A  11      -5.086 -10.133   1.217  0.00  0.00     0.241 C 
ATOM      2  O   LEU A  11      -5.583  -9.015   1.102  0.00  0.00    -0.271 OA
ATOM      3  N   GLN A  12      -4.634 -10.606   2.381  0.00  0.00    -0.346 N 
ATOM      4  H12 GLN A  12      -4.235 -11.533   2.414  0.00  0.00     0.163 HD
ENDROOT
BRANCH   3   5
ATOM      5  CA  GLN A  12      -4.701  -9.818   3.607  0.00  0.00     0.177 C 
BRANCH   5   6
ATOM      6  CB  GLN A  12      -4.264 -10.661   4.808  1.00 35.00     0.044 C 
BRANCH   6   7
ATOM      7  CG  GLN A  12      -4.380  -9.945   6.144  1.00 35.00     0.105 C 
BRANCH   7   8
ATOM      8  CD  GLN A  12      -3.925 -10.806   7.306  1.00 35.00     0.215 C 
ATOM      9  NE2 GLN A  12      -4.883 -11.308   8.079  1.00 35.00    -0.370 N 
ATOM     10  H06 GLN A  12      -4.642 -11.889   8.869  1.00 35.00     0.159 HD
ATOM     11  H07 GLN A  12      -5.852 -11.108   7.876  1.00 35.00     0.159 HD
ATOM     12  OE1 GLN A  12      -2.730 -11.016   7.507  1.00 35.00    -0.274 OA
ENDBRANCH   7   8
ENDBRANCH   6   7
ENDBRANCH   5   6
BRANCH   5  13
ATOM     13  C   GLN A  12      -3.842  -8.561   3.512  0.00  0.00     0.241 C 
ATOM     14  N   VAL A  13      -2.630  -8.690   2.966  0.00  0.00    -0.346 N 
ATOM     15  H08 VAL A  13      -2.331  -9.598   2.642  0.00  0.00     0.163 HD
ATOM     16  O   GLN A  12      -4.272  -7.488   3.929  0.00  0.00    -0.271 OA
BRANCH  14  17
ATOM     17  CA  VAL A  13      -1.727  -7.553   2.826  0.00  0.00     0.180 C 
BRANCH  17  18
ATOM     18  C   VAL A  13      -2.547  -6.496   2.093  0.00  0.00     0.241 C 
ATOM     19  N   LEU A  14      -3.150  -6.868   0.961  0.00  0.00    -0.346 N 
ATOM     20  H10 LEU A  14      -3.044  -7.818   0.636  0.00  0.00     0.163 HD
ATOM     21  O   VAL A  13      -2.632  -5.358   2.548  0.00  0.00    -0.271 OA
BRANCH  19  22
ATOM     22  CA  LEU A  14      -3.958  -5.937   0.182  0.00  0.00     0.177 C 
BRANCH  22  23
ATOM     23  CB  LEU A  14      -4.383  -6.594  -1.141  1.00 59.00     0.038 C 
BRANCH  23  24
ATOM     24  CG  LEU A  14      -4.923  -5.657  -2.223  1.00 59.00    -0.020 C 
ATOM     25  CD1 LEU A  14      -5.087  -6.398  -3.542  1.00 59.00     0.009 C 
ATOM     26  CD2 LEU A  14      -6.279  -5.098  -1.822  1.00 59.00     0.009 C 
ENDBRANCH  23  24
ENDBRANCH  22  23
BRANCH  22  27
ATOM     27  C   LEU A  14      -5.196  -5.446   0.927  0.00  0.00     0.240 C 
ATOM     28  N   GLY A  15      -5.969  -6.370   1.503  0.00  0.00    -0.351 N 
ATOM     29  H12 GLY A  15      -5.712  -7.344   1.426  0.00  0.00     0.163 HD
ATOM     30  O   LEU A  14      -5.446  -4.244   0.979  0.00  0.00    -0.271 OA
BRANCH  28  31
ATOM     31  CA  GLY A  15      -7.175  -6.010   2.240  0.00  0.00     0.225 C 
BRANCH  31  32
ATOM     32  C   GLY A  15      -6.799  -5.127   3.425  0.00  0.00     0.236 C 
ATOM     33  N   GLN A  16      -5.786  -5.534   4.194  0.00  0.00    -0.346 N 
ATOM     34  H03 GLN A  16      -5.313  -6.397   3.968  0.00  0.00     0.163 HD
ATOM     35  O   GLY A  15      -7.421  -4.088   3.640  0.00  0.00    -0.272 OA
BRANCH  33  36
ATOM     36  CA  GLN A  16      -5.345  -4.765   5.352  0.00  0.00     0.177 C 
BRANCH  36  37
ATOM     37  C   GLN A  16      -4.972  -3.324   5.016  0.00  0.00     0.241 C 
ATOM     38  O   GLN A  16      -5.454  -2.397   5.663  0.00  0.00    -0.271 OA
ATOM     39  N   ARG A  17      -4.118  -3.134   4.008  0.00  0.00    -0.346 N 
ATOM     40  H09 ARG A  17      -3.755  -3.936   3.513  0.00  0.00     0.163 HD
BRANCH  39  41
ATOM     41  CA  ARG A  17      -3.695  -1.798   3.603  0.00  0.00     0.176 C 
BRANCH  41  42
ATOM     42  CB  ARG A  17      -2.625  -1.905   2.501  1.00  0.00     0.036 C 
BRANCH  42  43
ATOM     43  CG  ARG A  17      -1.331  -2.567   2.945  1.00  0.00     0.017 C 
BRANCH  43  44
ATOM     44  CD  ARG A  17      -0.442  -1.591   3.699  1.00  0.00     0.095 C 
BRANCH  44  45
ATOM     45  NE  ARG A  17      -0.878  -1.407   5.079  1.00  0.00    -0.270 NA
ATOM     46  H08 ARG A  17      -1.883  -1.313   5.038  1.00  0.00     0.130 HD
ATOM     47  CZ  ARG A  17      -0.457  -0.426   5.872  1.00  0.00     0.122 C 
ATOM     48  NH1 ARG A  17       0.418   0.462   5.419  1.00  0.00    -0.381 N 
ATOM     49  NH2 ARG A  17      -0.909  -0.338   7.115  1.00  0.00    -0.279 NA
ATOM     50  H10 ARG A  17       0.783   0.378   4.481  1.00  0.00     0.158 HD
ATOM     51  H11 ARG A  17       0.719   1.222   6.012  1.00  0.00     0.158 HD
ATOM     52  H12 ARG A  17      -0.328  -0.895   7.725  1.00  0.00     0.126 HD
ATOM     53  H13 ARG A  17      -0.886   0.626   7.415  1.00  0.00     0.126 HD
ENDBRANCH  44  45
ENDBRANCH  43  44
ENDBRANCH  42  43
ENDBRANCH  41  42
BRANCH  41  54
ATOM     54  C   ARG A  17      -4.835  -0.911   3.113  0.00  0.00     0.241 C 
ATOM     55  N   VAL A  18      -5.770  -1.483   2.352  0.00  0.00    -0.346 N 
ATOM     56  H14 VAL A  18      -5.691  -2.465   2.132  0.00  0.00     0.163 HD
ATOM     57  O   ARG A  17      -4.866   0.279   3.422  0.00  0.00    -0.271 OA
BRANCH  55  58
ATOM     58  CA  VAL A  18      -6.903  -0.727   1.830  0.00  0.00     0.180 C 
BRANCH  58  59
ATOM     59  CB  VAL A  18      -7.708  -1.542   0.806  1.00 73.00     0.009 C 
ATOM     60  CG2 VAL A  18      -6.860  -1.849  -0.419  1.00 73.00     0.012 C 
ATOM     61  CG1 VAL A  18      -8.937  -0.766   0.356  1.00 73.00     0.012 C 
ENDBRANCH  58  59
BRANCH  58  62
ATOM     62  C   VAL A  18      -7.822  -0.296   2.969  0.00  0.00     0.241 C 
ATOM     63  O   VAL A  18      -8.284   0.843   2.991  0.00  0.00    -0.271 OA
ATOM     64  N   GLY A  19      -8.088  -1.201   3.915  0.00  0.00    -0.351 N 
ATOM     65  H09 GLY A  19      -7.679  -2.122   3.844  0.00  0.00     0.163 HD
BRANCH  64  66
ATOM     66  CA  GLY A  19      -8.954  -0.894   5.048  0.00  0.00     0.225 C 
BRANCH  66  67
ATOM     67  C   GLY A  19      -8.349   0.220   5.895  0.00  0.00     0.236 C 
ATOM     68  O   GLY A  19      -9.074   1.085   6.384  0.00  0.00    -0.272 OA
ATOM     69  N   ARG A  20      -7.026   0.204   6.072  0.00  0.00    -0.346 N 
ATOM     70  H03 ARG A  20      -6.482  -0.533   5.646  0.00  0.00     0.163 HD
BRANCH  69  71
ATOM     71  CA  ARG A  20      -6.345   1.221   6.864  0.00  0.00     0.176 C 
BRANCH  71  72
ATOM     72  CB  ARG A  20      -4.892   0.836   7.115  1.00  0.00     0.037 C 
BRANCH  72  73
ATOM     73  CG  ARG A  20      -4.034   0.785   5.861  1.00  0.00     0.025 C 
BRANCH  73  74
ATOM     74  CD  ARG A  20      -2.602   0.395   6.187  1.00  0.00     0.169 C 
BRANCH  74  75
ATOM     75  NE  ARG A  20      -1.776   0.296   4.988  1.00  0.00    -0.108 NA
ATOM     76  CZ  ARG A  20      -1.152   1.325   4.423  1.00  0.00     0.686 C 
ATOM     77  NH1 ARG A  20      -1.263   2.537   4.949  1.00  0.00    -0.234 N 
ATOM     78  NH2 ARG A  20      -0.421   1.139   3.333  1.00  0.00    -0.234 N 
ATOM     79  H10 ARG A  20      -1.821   2.678   5.779  1.00  0.00     0.174 HD
ATOM     80  H09 ARG A  20      -0.790   3.319   4.520  1.00  0.00     0.174 HD
ATOM     81  H11 ARG A  20      -0.338   0.216   2.932  1.00  0.00     0.174 HD
ATOM     82  H12 ARG A  20       0.053   1.921   2.903  1.00  0.00     0.174 HD
ENDBRANCH  74  75
ENDBRANCH  73  74
ENDBRANCH  72  73
ENDBRANCH  71  72
BRANCH  71  83
ATOM     83  C   ARG A  20      -6.429   2.566   6.148  0.00  0.00     0.241 C 
ATOM     84  O   ARG A  20      -6.800   3.566   6.759  0.00  0.00    -0.271 OA
ATOM     85  N   THR A  21      -6.087   2.593   4.858  0.00  0.00    -0.346 N 
ATOM     86  H13 THR A  21      -5.790   1.738   4.410  0.00  0.00     0.163 HD
BRANCH  85  87
ATOM     87  CA  THR A  21      -6.131   3.825   4.079  0.00  0.00     0.174 C 
BRANCH  87  88
ATOM     88  CB  THR A  21      -5.212   3.743   2.845  1.00 49.00     0.143 C 
ATOM     89  CG2 THR A  21      -3.768   3.518   3.269  1.00 49.00     0.042 C 
BRANCH  88  90
ATOM     90  OG1 THR A  21      -5.625   2.654   2.010  1.00 49.00    -0.393 OA
ATOM     91  H07 THR A  21      -5.809   1.885   2.554  1.00 49.00     0.210 HD
ENDBRANCH  88  90
ENDBRANCH  87  88
BRANCH  87  92
ATOM     92  C   THR A  21      -7.551   4.145   3.621  0.00  0.00     0.258 C 
ATOM     93  O   THR A  21      -7.991   5.287   3.734  0.00  0.00    -0.305 OA
ENDBRANCH  87  92
ENDBRANCH  85  87
ENDBRANCH  71  83
ENDBRANCH  69  71
ENDBRANCH  66  67
ENDBRANCH  64  66
ENDBRANCH  58  62
ENDBRANCH  55  58
ENDBRANCH  41  54
ENDBRANCH  39  41
ENDBRANCH  36  37
BRANCH  36  94
ATOM     94  CB  GLN A  16      -4.146  -5.462   6.015  1.00 35.00     0.044 C 
BRANCH  94  95
ATOM     95  CG  GLN A  16      -3.692  -4.824   7.318  1.00 35.00     0.105 C 
BRANCH  95  96
ATOM     96  CD  GLN A  16      -4.778  -4.830   8.377  1.00 35.00     0.215 C 
ATOM     97  NE2 GLN A  16      -5.298  -6.015   8.681  1.00 35.00    -0.370 N 
ATOM     98  H07 GLN A  16      -6.025  -6.083   9.379  1.00 35.00     0.159 HD
ATOM     99  H08 GLN A  16      -4.966  -6.847   8.214  1.00 35.00     0.159 HD
ATOM    100  OE1 GLN A  16      -5.143  -3.784   8.912  1.00 35.00    -0.274 OA
ENDBRANCH  95  96
ENDBRANCH  94  95
ENDBRANCH  36  94
ENDBRANCH  33  36
ENDBRANCH  31  32
ENDBRANCH  28  31
ENDBRANCH  22  27
ENDBRANCH  19  22
ENDBRANCH  17  18
BRANCH  17 101
ATOM    101  CB  VAL A  13      -0.455  -7.882   2.067  1.00 73.00     0.009 C 
ATOM    102  CG1 VAL A  13       0.382  -6.625   1.877  1.00 73.00     0.012 C 
ATOM    103  CG2 VAL A  13       0.382  -8.908   2.815  1.00 73.00     0.012 C 
ENDBRANCH  17 101
ENDBRANCH  14  17
ENDBRANCH   5  13
ENDBRANCH   3   5
BRANCH   1 104
ATOM    104  CA  LEU A  11      -4.965 -11.045   0.000  0.00  0.00     0.177 C 
BRANCH 104 105
ATOM    105  CB  LEU A  11      -6.009 -12.141   0.019  1.00 59.00     0.038 C 
BRANCH 105 106
ATOM    106  CG  LEU A  11      -6.037 -13.059  -1.204  1.00 59.00    -0.020 C 
ATOM    107  CD1 LEU A  11      -7.032 -14.192  -1.002  1.00 59.00     0.009 C 
ATOM    108  CD2 LEU A  11      -6.445 -12.285  -2.448  1.00 59.00     0.009 C 
ENDBRANCH 105 106
ENDBRANCH 104 105
BRANCH 104 109
ATOM    109  N   LEU A  11      -3.609 -11.583   0.021  0.00  0.00    -0.346 N 
ATOM    110  H05 LEU A  11      -3.477 -12.581   0.104  0.00  0.00     0.163 HD
ATOM    111  C   ASP A  10      -2.538 -10.790  -0.067  0.00  0.00     0.241 C 
ATOM    112  O   ASP A  10      -2.622  -9.568  -0.170  0.00  0.00    -0.271 OA
BRANCH 111 113
ATOM    113  CA  ASP A  10      -1.169 -11.462  -0.034  0.00  0.00     0.186 C 
BRANCH 113 114
ATOM    114  CB  ASP A  10      -0.756 -11.892  -1.441  1.00 51.00     0.147 C 
BRANCH 114 115
ATOM    115  CG  ASP A  10       0.718 -12.231  -1.538  1.00 51.00     0.175 C 
ATOM    116  OD2 ASP A  10       1.127 -12.820  -2.559  1.00 51.00    -0.648 OA
ATOM    117  OD1 ASP A  10       1.466 -11.907  -0.590  1.00 51.00    -0.648 OA
ENDBRANCH 114 115
ENDBRANCH 113 114
BRANCH 113 118
ATOM    118  N   ASP A  10      -1.178 -12.605   0.871  0.00  0.00    -0.346 N 
ATOM    119  C   GLY A   9      -1.331 -12.457   2.189  0.00  0.00     0.236 C 
ATOM    120  O   GLY A   9      -1.473 -11.358   2.722  0.00  0.00    -0.272 OA
ATOM    121  H03 ASP A  10      -1.065 -13.534   0.491  0.00  0.00     0.163 HD
BRANCH 119 122
ATOM    122  CA  GLY A   9      -1.325 -13.723   3.040  0.00  0.00     0.225 C 
BRANCH 122 123
ATOM    123  N   GLY A   9      -2.223 -14.686   2.413  0.00  0.00    -0.351 N 
ATOM    124  H14 GLY A   9      -1.843 -15.547   2.047  0.00  0.00     0.163 HD
ATOM    125  C   ARG A   8      -3.535 -14.459   2.310  0.00  0.00     0.240 C 
ATOM    126  O   ARG A   8      -4.067 -13.435   2.732  0.00  0.00    -0.271 OA
BRANCH 125 127
ATOM    127  CA  ARG A   8      -4.378 -15.536   1.635  0.00  0.00     0.176 C 
BRANCH 127 128
ATOM    128  CB  ARG A   8      -4.727 -16.644   2.619  1.00  0.00     0.036 C 
BRANCH 128 129
ATOM    129  CG  ARG A   8      -5.555 -16.178   3.805  1.00  0.00     0.023 C 
BRANCH 129 130
ATOM    130  CD  ARG A   8      -5.945 -17.344   4.699  1.00  0.00     0.138 C 
BRANCH 130 131
ATOM    131  NE  ARG A   8      -6.717 -16.910   5.859  1.00  0.00    -0.227 N 
ATOM    132  CZ  ARG A   8      -7.172 -17.729   6.803  1.00  0.00     0.665 C 
ATOM    133  NH2 ARG A   8      -7.866 -17.244   7.823  1.00  0.00    -0.235 N 
ATOM    134  NH1 ARG A   8      -6.933 -19.031   6.722  1.00  0.00    -0.235 N 
ATOM    135  H11 ARG A   8      -8.048 -16.252   7.884  1.00  0.00     0.174 HD
ATOM    136  H13 ARG A   8      -8.212 -17.866   8.539  1.00  0.00     0.174 HD
ATOM    137  H09 ARG A   8      -7.279 -19.653   7.438  1.00  0.00     0.174 HD
ATOM    138  H10 ARG A   8      -6.405 -19.400   5.944  1.00  0.00     0.174 HD
ATOM    139  H08 ARG A   8      -6.919 -15.925   5.951  1.00  0.00     0.177 HD
ENDBRANCH 130 131
ENDBRANCH 129 130
ENDBRANCH 128 129
ENDBRANCH 127 128
BRANCH 127 140
ATOM    140  N   ARG A   8      -3.648 -16.062   0.487  0.00  0.00    -0.346 N 
ATOM    141  C   LEU A   7      -3.278 -15.278  -0.529  0.00  0.00     0.241 C 
ATOM    142  O   LEU A   7      -3.526 -14.075  -0.564  0.00  0.00    -0.271 OA
ATOM    143  H12 ARG A   8      -3.416 -17.045   0.460  0.00  0.00     0.163 HD
BRANCH 141 144
ATOM    144  CA  LEU A   7      -2.519 -15.936  -1.677  0.00  0.00     0.177 C 
BRANCH 144 145
ATOM    145  N   LEU A   7      -1.417 -16.749  -1.175  0.00  0.00    -0.346 N 
ATOM    146  H06 LEU A   7      -1.411 -17.741  -1.366  0.00  0.00     0.163 HD
ATOM    147  C   ASN A   6      -0.416 -16.216  -0.469  0.00  0.00     0.241 C 
ATOM    148  O   ASN A   6      -0.357 -15.019  -0.200  0.00  0.00    -0.271 OA
BRANCH 147 149
ATOM    149  CA  ASN A   6       0.683 -17.161   0.005  0.00  0.00     0.185 C 
BRANCH 149 150
ATOM    150  N   ASN A   6       0.122 -18.357   0.625  0.00  0.00    -0.346 N 
ATOM    151  H07 ASN A   6       0.311 -19.260   0.213  0.00  0.00     0.163 HD
ATOM    152  C   PRO A   5      -0.634 -18.289   1.723  0.00  0.00     0.241 C 
ATOM    153  O   PRO A   5      -0.905 -17.227   2.279  0.00  0.00    -0.271 OA
BRANCH 152 154
ATOM    154  CA  PRO A   5      -1.168 -19.604   2.285  0.00  0.00     0.179 C 
ATOM    155  N   PRO A   5      -1.730 -20.354   1.167  0.00  0.00    -0.337 N 
ATOM    156  C   VAL A   4      -2.766 -19.891   0.462  0.00  0.00     0.243 C 
ATOM    157  CD  PRO A   5      -0.941 -21.535   0.877  1.00 50.00     0.127 C 
ATOM    158  O   VAL A   4      -3.307 -18.815   0.704  0.00  0.00    -0.271 OA
ATOM    159  CG  PRO A   5       0.350 -21.346   1.652  1.00 50.00     0.022 C 
ATOM    160  CB  PRO A   5      -0.083 -20.509   2.834  1.00 50.00     0.037 C 
BRANCH 156 161
ATOM    161  CA  VAL A   4      -3.272 -20.760  -0.685  0.00  0.00     0.180 C 
BRANCH 161 162
ATOM    162  N   VAL A   4      -2.204 -21.327  -1.501  0.00  0.00    -0.346 N 
ATOM    163  C   GLY A   3      -1.343 -20.554  -2.167  0.00  0.00     0.236 C 
ATOM    164  O   GLY A   3      -1.392 -19.327  -2.137  0.00  0.00    -0.272 OA
ATOM    165  H03 VAL A   4      -2.114 -22.331  -1.564  0.00  0.00     0.163 HD
BRANCH 163 166
ATOM    166  CA  GLY A   3      -0.267 -21.256  -2.989  0.00  0.00     0.225 C 
BRANCH 166 167
ATOM    167  N   GLY A   3       0.106 -20.466  -4.157  0.00  0.00    -0.351 N 
ATOM    168  C   ASN A   2      -0.244 -20.831  -5.393  0.00  0.00     0.241 C 
ATOM    169  O   ASN A   2      -0.898 -21.846  -5.626  0.00  0.00    -0.271 OA
ATOM    170  H07 GLY A   3       0.643 -19.621  -4.028  0.00  0.00     0.163 HD
BRANCH 168 171
ATOM    171  CA  ASN A   2       0.200 -19.929  -6.539  0.00  0.00     0.185 C 
BRANCH 171 172
ATOM    172  CB  ASN A   2       0.868 -20.779  -7.631  1.00  0.00     0.137 C 
BRANCH 172 173
ATOM    173  CG  ASN A   2       2.260 -21.233  -7.239  1.00  0.00     0.217 C 
ATOM    174  ND2 ASN A   2       3.263 -20.756  -7.966  1.00  0.00    -0.370 N 
ATOM    175  H06 ASN A   2       3.076 -20.126  -8.733  1.00  0.00     0.159 HD
ATOM    176  H04 ASN A   2       4.213 -21.023  -7.752  1.00  0.00     0.159 HD
ATOM    177  OD1 ASN A   2       2.429 -22.002  -6.294  1.00  0.00    -0.274 OA
ENDBRANCH 172 173
ENDBRANCH 171 172
BRANCH 171 178
ATOM    178  N   ASN A   2       1.104 -18.865  -6.116  0.00  0.00    -0.346 N 
ATOM    179  C   GLY A   1       0.651 -17.661  -5.757  0.00  0.00     0.246 C 
ATOM    180  O   GLY A   1      -0.544 -17.372  -5.760  0.00  0.00    -0.272 OA
ATOM    181  H05 ASN A   2       2.098 -19.043  -6.094  0.00  0.00     0.163 HD
BRANCH 179 182
ATOM    182  CA  GLY A   1       1.686 -16.624  -5.332  0.00  0.00     0.368 C 
BRANCH 182 183
ATOM    183  N   GLY A   1       2.145 -16.826  -3.963  0.00  0.00     0.087 N 
ATOM    184  H02 GLY A   1       2.398 -17.795  -3.832  0.00  0.00     0.313 HD
ATOM    185  H01 GLY A   1       1.406 -16.580  -3.320  0.00  0.00     0.313 HD
ENDBRANCH 182 183
ENDBRANCH 179 182
ENDBRANCH 171 178
ENDBRANCH 168 171
ENDBRANCH 166 167
ENDBRANCH 163 166
ENDBRANCH 161 162
BRANCH 161 186
ATOM    186  CB  VAL A   4      -4.163 -21.879  -0.093  1.00 73.00     0.009 C 
ATOM    187  CG2 VAL A   4      -4.874 -22.630  -1.208  1.00 73.00     0.012 C 
ATOM    188  CG1 VAL A   4      -5.214 -21.293   0.838  1.00 73.00     0.012 C 
ENDBRANCH 161 186
ENDBRANCH 156 161
ENDBRANCH 152 154
ENDBRANCH 149 150
BRANCH 149 189
ATOM    189  CB  ASN A   6       1.591 -17.541  -1.167  1.00  0.00     0.137 C 
BRANCH 189 190
ATOM    190  CG  ASN A   6       2.814 -18.322  -0.728  1.00  0.00     0.217 C 
ATOM    191  ND2 ASN A   6       3.181 -19.331  -1.507  1.00  0.00    -0.370 N 
ATOM    192  H04 ASN A   6       3.988 -19.888  -1.265  1.00  0.00     0.159 HD
ATOM    193  H05 ASN A   6       2.653 -19.543  -2.342  1.00  0.00     0.159 HD
ATOM    194  OD1 ASN A   6       3.419 -18.019   0.300  1.00  0.00    -0.274 OA
ENDBRANCH 189 190
ENDBRANCH 149 189
ENDBRANCH 147 149
ENDBRANCH 144 145
BRANCH 144 195
ATOM    195  CB  LEU A   7      -3.471 -16.784  -2.522  1.00 59.00     0.038 C 
BRANCH 195 196
ATOM    196  CG  LEU A   7      -4.669 -16.052  -3.131  1.00 59.00    -0.020 C 
ATOM    197  CD2 LEU A   7      -5.566 -17.024  -3.882  1.00 59.00     0.009 C 
ATOM    198  CD1 LEU A   7      -4.205 -14.983  -4.109  1.00 59.00     0.009 C 
ENDBRANCH 195 196
ENDBRANCH 144 195
ENDBRANCH 141 144
ENDBRANCH 127 140
ENDBRANCH 125 127
ENDBRANCH 122 123
ENDBRANCH 119 122
ENDBRANCH 113 118
ENDBRANCH 111 113
ENDBRANCH 104 109
ENDBRANCH   1 104
TORSDOF 76
