REMARK WARNING: 32 MAX_TORS EXCEEDED!!!
REMARK  76 active torsions:
REMARK  status: ('A' for Active; 'I' for Inactive)
REMARK    1  A    between atoms: N_1  and  CA_2 
REMARK    2  A    between atoms: CA_2  and  C_3 
REMARK       I    between atoms: C_3  and  N_7 
REMARK    3  A    between atoms: N_7  and  CA_8 
REMARK    4  A    between atoms: CA_8  and  C_9 
REMARK    5  A    between atoms: CA_8  and  CB_11 
REMARK       I    between atoms: C_9  and  N_18 
REMARK    6  A    between atoms: CB_11  and  CG_12 
REMARK       I    between atoms: CG_12  and  ND2_13 
REMARK    7  A    between atoms: N_18  and  CA_19 
REMARK    8  A    between atoms: CA_19  and  C_20 
REMARK       I    between atoms: C_20  and  N_23 
REMARK    9  A    between atoms: N_23  and  CA_24 
REMARK   10  A    between atoms: CA_24  and  C_25 
REMARK   11  A    between atoms: CA_24  and  CB_27 
REMARK       I    between atoms: C_25  and  N_31 
REMARK   12  A    between atoms: CA_32  and  C_33 
REMARK       I    between atoms: C_33  and  N_38 
REMARK   13  A    between atoms: N_38  and  CA_39 
REMARK   14  A    between atoms: CA_39  and  CB_42 
REMARK   15  A    between atoms: CA_39  and  C_40 
REMARK       I    between atoms: C_40  and  N_49 
REMARK   16  A    between atoms: CB_42  and  CG_43 
REMARK       I    between atoms: CG_43  and  ND2_44 
REMARK   17  A    between atoms: N_49  and  CA_50 
REMARK   18  A    between atoms: CA_50  and  C_51 
REMARK   19  A    between atoms: CA_50  and  CB_53 
REMARK       I    between atoms: C_51  and  N_58 
REMARK   20  A    between atoms: CB_53  and  CG_54 
REMARK   21  A    between atoms: N_58  and  CA_59 
REMARK   22  A    between atoms: CA_59  and  C_60 
REMARK   23  A    between atoms: CA_59  and  CB_62 
REMARK       I    between atoms: C_60  and  N_75 
REMARK   24  A    between atoms: CB_62  and  CG_63 
REMARK   25  A    between atoms: CG_63  and  CD_64 
REMARK   26  A    between atoms: CD_64  and  NE_65 
REMARK       I    between atoms: NE_65  and  CZ_66 
REMARK       I    between atoms: CZ_66  and  NH1_67 
REMARK       I    between atoms: CZ_66  and  NH2_68 
REMARK   27  A    between atoms: N_75  and  CA_76 
REMARK   28  A    between atoms: CA_76  and  C_77 
REMARK       I    between atoms: C_77  and  N_80 
REMARK   29  A    between atoms: N_80  and  CA_81 
REMARK   30  A    between atoms: CA_81  and  C_82 
REMARK   31  A    between atoms: CA_81  and  CB_84 
REMARK       I    between atoms: C_82  and  N_89 
REMARK   32  A    between atoms: CB_84  and  CG_85 
REMARK   33  A    between atoms: N_89  and  CA_90 
REMARK   34  A    between atoms: CA_90  and  C_91 
REMARK   35  A    between atoms: CA_90  and  CB_93 
REMARK       I    between atoms: C_91  and  N_98 
REMARK   36  A    between atoms: CB_93  and  CG_94 
REMARK   37  A    between atoms: N_98  and  CA_99 
REMARK   38  A    between atoms: CA_99  and  C_100 
REMARK   39  A    between atoms: CA_99  and  CB_102 
REMARK       I    between atoms: C_100  and  N_110 
REMARK   40  A    between atoms: CB_102  and  CG_103 
REMARK   41  A    between atoms: CG_103  and  CD_104 
REMARK       I    between atoms: CD_104  and  NE2_105 
REMARK   42  A    between atoms: N_110  and  CA_111 
REMARK   43  A    between atoms: CA_111  and  C_112 
REMARK   44  A    between atoms: CA_111  and  CB_114 
REMARK       I    between atoms: C_112  and  N_118 
REMARK   45  A    between atoms: N_118  and  CA_119 
REMARK   46  A    between atoms: CA_119  and  C_120 
REMARK   47  A    between atoms: CA_119  and  CB_122 
REMARK       I    between atoms: C_120  and  N_127 
REMARK   48  A    between atoms: CB_122  and  CG_123 
REMARK   49  A    between atoms: N_127  and  CA_128 
REMARK   50  A    between atoms: CA_128  and  C_129 
REMARK       I    between atoms: C_129  and  N_132 
REMARK   51  A    between atoms: N_132  and  CA_133 
REMARK   52  A    between atoms: CA_133  and  CB_136 
REMARK   53  A    between atoms: CA_133  and  C_134 
REMARK       I    between atoms: C_134  and  N_144 
REMARK   54  A    between atoms: CB_136  and  CG_137 
REMARK   55  A    between atoms: CG_137  and  CD_138 
REMARK       I    between atoms: CD_138  and  NE2_139 
REMARK   56  A    between atoms: N_144  and  CA_145 
REMARK   57  A    between atoms: CA_145  and  CB_148 
REMARK   58  A    between atoms: CA_145  and  C_146 
REMARK       I    between atoms: C_146  and  N_161 
REMARK   59  A    between atoms: CB_148  and  CG_149 
REMARK   60  A    between atoms: CG_149  and  CD_150 
REMARK   61  A    between atoms: CD_150  and  NE_151 
REMARK       I    between atoms: NE_151  and  CZ_152 
REMARK       I    between atoms: CZ_152  and  NH2_154 
REMARK       I    between atoms: CZ_152  and  NH1_153 
REMARK   62  A    between atoms: N_161  and  CA_162 
REMARK   63  A    between atoms: CA_162  and  C_163 
REMARK   64  A    between atoms: CA_162  and  CB_165 
REMARK       I    between atoms: C_163  and  N_169 
REMARK   65  A    between atoms: N_169  and  CA_170 
REMARK   66  A    between atoms: CA_170  and  C_171 
REMARK       I    between atoms: C_171  and  N_174 
REMARK   67  A    between atoms: N_174  and  CA_175 
REMARK   68  A    between atoms: CA_175  and  CB_178 
REMARK   69  A    between atoms: CA_175  and  C_176 
REMARK       I    between atoms: C_176  and  N_191 
REMARK   70  A    between atoms: CB_178  and  CG_179 
REMARK   71  A    between atoms: CG_179  and  CD_180 
REMARK   72  A    between atoms: CD_180  and  NE_181 
REMARK       I    between atoms: NE_181  and  CZ_182 
REMARK       I    between atoms: CZ_182  and  NH1_183 
REMARK   73  A    between atoms: N_191  and  CA_192 
REMARK   74  A    between atoms: CA_192  and  CB_195 
REMARK   75  A    between atoms: CA_192  and  C_193 
REMARK   76  A    between atoms: CB_195  and  OG1_197 
ROOT
ATOM      1  CA  GLN A  12      -2.974 -12.864   3.629  0.00  0.00     0.177 C 
ENDROOT
BRANCH   1   2
ATOM      2  C   GLN A  12      -1.774 -12.923   2.690  0.00  0.00     0.241 C 
ATOM      3  N   VAL A  13      -1.478 -11.814   2.007  0.00  0.00    -0.346 N 
ATOM      4  H08 VAL A  13      -2.049 -10.991   2.134  0.00  0.00     0.163 HD
ATOM      5  O   GLN A  12      -1.124 -13.961   2.586  0.00  0.00    -0.271 OA
BRANCH   3   6
ATOM      6  CA  VAL A  13      -0.351 -11.761   1.082  0.00  0.00     0.180 C 
BRANCH   6   7
ATOM      7  C   VAL A  13       0.948 -12.034   1.833  0.00  0.00     0.241 C 
ATOM      8  O   VAL A  13       1.764 -12.834   1.380  0.00  0.00    -0.271 OA
ATOM      9  N   LEU A  14       1.143 -11.374   2.977  0.00  0.00    -0.346 N 
ATOM     10  H10 LEU A  14       0.436 -10.729   3.299  0.00  0.00     0.163 HD
BRANCH   9  11
ATOM     11  CA  LEU A  14       2.351 -11.560   3.774  0.00  0.00     0.177 C 
BRANCH  11  12
ATOM     12  C   LEU A  14       2.494 -13.036   4.128  0.00  0.00     0.240 C 
ATOM     13  N   GLY A  15       1.433 -13.641   4.668  0.00  0.00    -0.351 N 
ATOM     14  H12 GLY A  15       0.588 -13.109   4.820  0.00  0.00     0.163 HD
ATOM     15  O   LEU A  14       3.555 -13.620   3.916  0.00  0.00    -0.271 OA
BRANCH  13  16
ATOM     16  CA  GLY A  15       1.461 -15.050   5.044  0.00  0.00     0.225 C 
BRANCH  16  17
ATOM     17  C   GLY A  15       1.499 -15.953   3.816  0.00  0.00     0.236 C 
ATOM     18  N   GLN A  16       0.704 -15.628   2.794  0.00  0.00    -0.346 N 
ATOM     19  H03 GLN A  16       0.116 -14.810   2.869  0.00  0.00     0.163 HD
ATOM     20  O   GLY A  15       2.242 -16.933   3.795  0.00  0.00    -0.272 OA
BRANCH  18  21
ATOM     21  CA  GLN A  16       0.662 -16.423   1.572  0.00  0.00     0.177 C 
BRANCH  21  22
ATOM     22  CB  GLN A  16      -0.264 -15.754   0.544  1.00 35.00     0.044 C 
BRANCH  22  23
ATOM     23  CG  GLN A  16      -0.468 -16.558  -0.730  1.00 35.00     0.105 C 
BRANCH  23  24
ATOM     24  CD  GLN A  16      -1.377 -17.753  -0.524  1.00 35.00     0.215 C 
ATOM     25  NE2 GLN A  16      -2.209 -18.040  -1.520  1.00 35.00    -0.370 N 
ATOM     26  H08 GLN A  16      -2.211 -17.473  -2.356  1.00 35.00     0.159 HD
ATOM     27  H07 GLN A  16      -2.840 -18.825  -1.441  1.00 35.00     0.159 HD
ATOM     28  OE1 GLN A  16      -1.332 -18.408   0.516  1.00 35.00    -0.274 OA
ENDBRANCH  23  24
ENDBRANCH  22  23
ENDBRANCH  21  22
BRANCH  21  29
ATOM     29  C   GLN A  16       2.038 -16.641   0.952  0.00  0.00     0.241 C 
ATOM     30  O   GLN A  16       2.352 -17.748   0.520  0.00  0.00    -0.271 OA
ATOM     31  N   ARG A  17       2.860 -15.589   0.907  0.00  0.00    -0.346 N 
ATOM     32  H09 ARG A  17       2.547 -14.704   1.278  0.00  0.00     0.163 HD
BRANCH  31  33
ATOM     33  CA  ARG A  17       4.199 -15.686   0.335  0.00  0.00     0.176 C 
BRANCH  33  34
ATOM     34  CB  ARG A  17       4.689 -14.308  -0.117  1.00  0.00     0.036 C 
BRANCH  34  35
ATOM     35  CG  ARG A  17       6.048 -14.324  -0.795  1.00  0.00     0.023 C 
BRANCH  35  36
ATOM     36  CD  ARG A  17       6.431 -12.941  -1.298  1.00  0.00     0.138 C 
BRANCH  36  37
ATOM     37  NE  ARG A  17       7.748 -12.933  -1.927  1.00  0.00    -0.227 N 
ATOM     38  CZ  ARG A  17       8.324 -11.850  -2.439  1.00  0.00     0.665 C 
ATOM     39  NH2 ARG A  17       9.526 -11.938  -2.992  1.00  0.00    -0.235 N 
ATOM     40  NH1 ARG A  17       7.696 -10.683  -2.400  1.00  0.00    -0.235 N 
ATOM     41  H12 ARG A  17      10.004 -12.827  -3.023  1.00  0.00     0.174 HD
ATOM     42  H13 ARG A  17       9.964 -11.116  -3.382  1.00  0.00     0.174 HD
ATOM     43  H11 ARG A  17       6.780 -10.616  -1.980  1.00  0.00     0.174 HD
ATOM     44  H10 ARG A  17       8.134  -9.861  -2.790  1.00  0.00     0.174 HD
ATOM     45  H08 ARG A  17       8.254 -13.806  -1.976  1.00  0.00     0.177 HD
ENDBRANCH  36  37
ENDBRANCH  35  36
ENDBRANCH  34  35
ENDBRANCH  33  34
BRANCH  33  46
ATOM     46  C   ARG A  17       5.186 -16.292   1.329  0.00  0.00     0.241 C 
ATOM     47  O   ARG A  17       6.004 -17.127   0.951  0.00  0.00    -0.271 OA
ATOM     48  N   VAL A  18       5.112 -15.874   2.595  0.00  0.00    -0.346 N 
ATOM     49  H14 VAL A  18       4.418 -15.185   2.846  0.00  0.00     0.163 HD
BRANCH  48  50
ATOM     50  CA  VAL A  18       6.008 -16.387   3.625  0.00  0.00     0.180 C 
BRANCH  50  51
ATOM     51  C   VAL A  18       5.903 -17.905   3.736  0.00  0.00     0.241 C 
ATOM     52  N   GLY A  19       4.682 -18.441   3.655  0.00  0.00    -0.351 N 
ATOM     53  H09 GLY A  19       3.886 -17.833   3.526  0.00  0.00     0.163 HD
ATOM     54  O   VAL A  18       6.916 -18.582   3.892  0.00  0.00    -0.271 OA
BRANCH  52  55
ATOM     55  CA  GLY A  19       4.468 -19.880   3.748  0.00  0.00     0.225 C 
BRANCH  55  56
ATOM     56  C   GLY A  19       4.737 -20.561   2.410  0.00  0.00     0.236 C 
ATOM     57  O   GLY A  19       4.885 -21.780   2.358  0.00  0.00    -0.272 OA
ATOM     58  N   ARG A  20       4.802 -19.780   1.329  0.00  0.00    -0.346 N 
ATOM     59  H03 ARG A  20       4.673 -18.784   1.434  0.00  0.00     0.163 HD
BRANCH  58  60
ATOM     60  CA  ARG A  20       5.054 -20.327   0.001  0.00  0.00     0.176 C 
BRANCH  60  61
ATOM     61  CB  ARG A  20       4.313 -19.505  -1.060  1.00  0.00     0.036 C 
BRANCH  61  62
ATOM     62  CG  ARG A  20       4.455 -20.044  -2.474  1.00  0.00     0.023 C 
BRANCH  62  63
ATOM     63  CD  ARG A  20       3.624 -19.237  -3.459  1.00  0.00     0.138 C 
BRANCH  63  64
ATOM     64  NE  ARG A  20       3.771 -19.724  -4.826  1.00  0.00    -0.227 N 
ATOM     65  CZ  ARG A  20       3.162 -19.188  -5.880  1.00  0.00     0.665 C 
ATOM     66  NH1 ARG A  20       2.360 -18.144  -5.722  1.00  0.00    -0.235 N 
ATOM     67  NH2 ARG A  20       3.356 -19.698  -7.088  1.00  0.00    -0.235 N 
ATOM     68  H11 ARG A  20       2.212 -17.756  -4.801  1.00  0.00     0.174 HD
ATOM     69  H10 ARG A  20       1.897 -17.737  -6.522  1.00  0.00     0.174 HD
ATOM     70  H13 ARG A  20       2.893 -19.291  -7.888  1.00  0.00     0.174 HD
ATOM     71  H12 ARG A  20       3.967 -20.493  -7.208  1.00  0.00     0.174 HD
ATOM     72  H09 ARG A  20       4.374 -20.519  -4.982  1.00  0.00     0.177 HD
ENDBRANCH  63  64
ENDBRANCH  62  63
ENDBRANCH  61  62
ENDBRANCH  60  61
BRANCH  60  73
ATOM     73  C   ARG A  20       6.543 -20.373  -0.326  0.00  0.00     0.241 C 
ATOM     74  O   ARG A  20       7.000 -21.304  -0.985  0.00  0.00    -0.271 OA
ATOM     75  N   THR A  21       7.301 -19.374   0.133  0.00  0.00    -0.346 N 
ATOM     76  H14 THR A  21       6.869 -18.636   0.670  0.00  0.00     0.163 HD
BRANCH  75  77
ATOM     77  CA  THR A  21       8.736 -19.320  -0.121  0.00  0.00     0.174 C 
BRANCH  77  78
ATOM     78  CB  THR A  21       9.125 -20.334  -1.232  1.00 49.00     0.143 C 
ATOM     79  CG2 THR A  21       8.409 -19.988  -2.529  1.00 49.00     0.042 C 
BRANCH  78  80
ATOM     80  OG1 THR A  21      10.540 -20.287  -1.457  1.00 49.00    -0.393 OA
ATOM     81  H07 THR A  21      10.811 -19.378  -1.606  1.00 49.00     0.210 HD
ENDBRANCH  78  80
ENDBRANCH  77  78
BRANCH  77  82
ATOM     82  C   THR A  21       9.268 -17.950  -0.529  0.00  0.00     0.258 C 
ATOM     83  O   THR A  21       9.491 -17.096   0.327  0.00  0.00    -0.305 OA
ENDBRANCH  77  82
ENDBRANCH  75  77
ENDBRANCH  60  73
ENDBRANCH  58  60
ENDBRANCH  55  56
ENDBRANCH  52  55
ENDBRANCH  50  51
BRANCH  50  84
ATOM     84  CB  VAL A  18       5.709 -15.758   4.998  1.00 73.00     0.009 C 
ATOM     85  CG2 VAL A  18       5.977 -14.261   4.968  1.00 73.00     0.012 C 
ATOM     86  CG1 VAL A  18       6.587 -16.382   6.072  1.00 73.00     0.012 C 
ENDBRANCH  50  84
ENDBRANCH  48  50
ENDBRANCH  33  46
ENDBRANCH  31  33
ENDBRANCH  21  29
ENDBRANCH  18  21
ENDBRANCH  16  17
ENDBRANCH  13  16
ENDBRANCH  11  12
BRANCH  11  87
ATOM     87  CB  LEU A  14       2.315 -10.704   5.033  1.00 59.00     0.038 C 
BRANCH  87  88
ATOM     88  CG  LEU A  14       3.646 -10.527   5.767  1.00 59.00    -0.020 C 
ATOM     89  CD2 LEU A  14       4.083 -11.833   6.410  1.00 59.00     0.009 C 
ATOM     90  CD1 LEU A  14       3.521  -9.478   6.861  1.00 59.00     0.009 C 
ENDBRANCH  87  88
ENDBRANCH  11  87
ENDBRANCH   9  11
ENDBRANCH   6   7
BRANCH   6  91
ATOM     91  CB  VAL A  13      -0.257 -10.403   0.371  1.00 73.00     0.009 C 
ATOM     92  CG2 VAL A  13       0.843 -10.430  -0.678  1.00 73.00     0.012 C 
ATOM     93  CG1 VAL A  13       0.058  -9.300   1.370  1.00 73.00     0.012 C 
ENDBRANCH   6  91
ENDBRANCH   3   6
ENDBRANCH   1   2
BRANCH   1  94
ATOM     94  CB  GLN A  12      -4.279 -12.954   2.862  1.00 35.00     0.044 C 
BRANCH  94  95
ATOM     95  CG  GLN A  12      -5.505 -13.067   3.754  1.00 35.00     0.105 C 
BRANCH  95  96
ATOM     96  CD  GLN A  12      -5.675 -14.456   4.337  1.00 35.00     0.215 C 
ATOM     97  OE1 GLN A  12      -4.714 -15.066   4.804  1.00 35.00    -0.274 OA
ATOM     98  NE2 GLN A  12      -6.904 -14.960   4.310  1.00 35.00    -0.370 N 
ATOM     99  H06 GLN A  12      -7.080 -15.882   4.684  1.00 35.00     0.159 HD
ATOM    100  H07 GLN A  12      -7.662 -14.421   3.916  1.00 35.00     0.159 HD
ENDBRANCH  95  96
ENDBRANCH  94  95
ENDBRANCH   1  94
BRANCH   1 101
ATOM    101  N   GLN A  12      -2.874 -11.618   4.380  0.00  0.00    -0.346 N 
ATOM    102  C   LEU A  11      -1.802 -11.329   5.122  0.00  0.00     0.241 C 
ATOM    103  O   LEU A  11      -0.839 -12.086   5.222  0.00  0.00    -0.271 OA
ATOM    104  H12 GLN A  12      -3.636 -10.956   4.338  0.00  0.00     0.163 HD
BRANCH 102 105
ATOM    105  CA  LEU A  11      -1.806  -9.996   5.864  0.00  0.00     0.177 C 
BRANCH 105 106
ATOM    106  N   LEU A  11      -2.300  -8.983   4.939  0.00  0.00    -0.346 N 
ATOM    107  H05 LEU A  11      -3.094  -8.419   5.206  0.00  0.00     0.163 HD
ATOM    108  C   ASP A  10      -1.730  -8.781   3.748  0.00  0.00     0.241 C 
ATOM    109  O   ASP A  10      -0.762  -9.429   3.357  0.00  0.00    -0.271 OA
BRANCH 108 110
ATOM    110  CA  ASP A  10      -2.330  -7.694   2.862  0.00  0.00     0.186 C 
BRANCH 110 111
ATOM    111  CB  ASP A  10      -1.785  -6.323   3.299  1.00 51.00     0.147 C 
BRANCH 111 112
ATOM    112  CG  ASP A  10      -0.278  -6.220   3.169  1.00 51.00     0.175 C 
ATOM    113  OD2 ASP A  10       0.390  -5.959   4.191  1.00 51.00    -0.648 OA
ATOM    114  OD1 ASP A  10       0.235  -6.400   2.044  1.00 51.00    -0.648 OA
ENDBRANCH 111 112
ENDBRANCH 110 111
BRANCH 110 115
ATOM    115  N   ASP A  10      -3.788  -7.669   2.869  0.00  0.00    -0.346 N 
ATOM    116  C   GLY A   9      -4.510  -8.676   2.370  0.00  0.00     0.236 C 
ATOM    117  O   GLY A   9      -3.999  -9.680   1.879  0.00  0.00    -0.272 OA
ATOM    118  H03 ASP A  10      -4.264  -6.869   3.261  0.00  0.00     0.163 HD
BRANCH 116 119
ATOM    119  CA  GLY A   9      -6.028  -8.543   2.430  0.00  0.00     0.225 C 
BRANCH 119 120
ATOM    120  N   GLY A   9      -6.424  -8.025   3.734  0.00  0.00    -0.351 N 
ATOM    121  H14 GLY A   9      -6.858  -7.115   3.790  0.00  0.00     0.163 HD
ATOM    122  C   ARG A   8      -6.228  -8.722   4.856  0.00  0.00     0.240 C 
ATOM    123  O   ARG A   8      -5.707  -9.835   4.864  0.00  0.00    -0.271 OA
BRANCH 122 124
ATOM    124  CA  ARG A   8      -6.682  -8.082   6.164  0.00  0.00     0.176 C 
BRANCH 124 125
ATOM    125  N   ARG A   8      -6.307  -6.676   6.269  0.00  0.00    -0.346 N 
ATOM    126  H12 ARG A   8      -7.032  -5.979   6.364  0.00  0.00     0.163 HD
ATOM    127  C   LEU A   7      -5.031  -6.286   6.243  0.00  0.00     0.241 C 
ATOM    128  O   LEU A   7      -4.096  -7.076   6.130  0.00  0.00    -0.271 OA
BRANCH 127 129
ATOM    129  CA  LEU A   7      -4.756  -4.790   6.360  0.00  0.00     0.177 C 
BRANCH 129 130
ATOM    130  CB  LEU A   7      -4.812  -4.359   7.828  1.00 59.00     0.038 C 
BRANCH 130 131
ATOM    131  CG  LEU A   7      -6.171  -4.489   8.520  1.00 59.00    -0.020 C 
ATOM    132  CD1 LEU A   7      -6.413  -5.923   8.964  1.00 59.00     0.009 C 
ATOM    133  CD2 LEU A   7      -6.235  -3.595   9.748  1.00 59.00     0.009 C 
ENDBRANCH 130 131
ENDBRANCH 129 130
BRANCH 129 134
ATOM    134  N   LEU A   7      -5.699  -4.012   5.564  0.00  0.00    -0.346 N 
ATOM    135  C   ASN A   6      -5.775  -4.144   4.237  0.00  0.00     0.241 C 
ATOM    136  O   ASN A   6      -5.062  -4.920   3.605  0.00  0.00    -0.271 OA
ATOM    137  H06 LEU A   7      -6.311  -3.356   6.029  0.00  0.00     0.163 HD
BRANCH 135 138
ATOM    138  CA  ASN A   6      -6.798  -3.280   3.507  0.00  0.00     0.185 C 
BRANCH 138 139
ATOM    139  N   ASN A   6      -8.102  -3.525   4.112  0.00  0.00    -0.346 N 
ATOM    140  C   PRO A   5      -8.704  -4.714   4.025  0.00  0.00     0.241 C 
ATOM    141  O   PRO A   5      -8.204  -5.670   3.437  0.00  0.00    -0.271 OA
ATOM    142  H07 ASN A   6      -8.562  -2.776   4.610  0.00  0.00     0.163 HD
BRANCH 140 143
ATOM    143  CA  PRO A   5     -10.067  -4.857   4.695  0.00  0.00     0.179 C 
ATOM    144  N   PRO A   5     -10.041  -4.048   5.908  0.00  0.00    -0.337 N 
ATOM    145  CD  PRO A   5     -10.926  -2.906   5.798  1.00 50.00     0.127 C 
ATOM    146  C   VAL A   4      -9.192  -4.305   6.906  0.00  0.00     0.243 C 
ATOM    147  CG  PRO A   5     -11.287  -2.828   4.326  1.00 50.00     0.022 C 
ATOM    148  CB  PRO A   5     -11.203  -4.270   3.880  1.00 50.00     0.037 C 
ATOM    149  O   VAL A   4      -8.385  -5.232   6.869  0.00  0.00    -0.271 OA
BRANCH 146 150
ATOM    150  CA  VAL A   4      -9.252  -3.393   8.127  0.00  0.00     0.180 C 
BRANCH 150 151
ATOM    151  CB  VAL A   4     -10.485  -3.806   8.975  1.00 73.00     0.009 C 
ATOM    152  CG1 VAL A   4     -10.495  -5.308   9.215  1.00 73.00     0.012 C 
ATOM    153  CG2 VAL A   4     -10.450  -3.103  10.324  1.00 73.00     0.012 C 
ENDBRANCH 150 151
BRANCH 150 154
ATOM    154  N   VAL A   4      -9.300  -1.968   7.819  0.00  0.00    -0.346 N 
ATOM    155  C   GLY A   3      -8.269  -1.338   7.251  0.00  0.00     0.236 C 
ATOM    156  O   GLY A   3      -7.222  -1.910   6.953  0.00  0.00    -0.272 OA
ATOM    157  H03 VAL A   4     -10.135  -1.444   8.041  0.00  0.00     0.163 HD
BRANCH 155 158
ATOM    158  CA  GLY A   3      -8.429   0.153   6.974  0.00  0.00     0.225 C 
BRANCH 158 159
ATOM    159  N   GLY A   3      -7.171   0.891   7.010  0.00  0.00    -0.351 N 
ATOM    160  H07 GLY A   3      -6.876   1.401   6.189  0.00  0.00     0.163 HD
ATOM    161  C   ASN A   2      -6.399   0.910   8.099  0.00  0.00     0.241 C 
ATOM    162  O   ASN A   2      -6.694   0.314   9.133  0.00  0.00    -0.271 OA
BRANCH 161 163
ATOM    163  CA  ASN A   2      -5.105   1.714   8.023  0.00  0.00     0.185 C 
BRANCH 163 164
ATOM    164  N   ASN A   2      -5.297   3.102   7.616  0.00  0.00    -0.346 N 
ATOM    165  H05 ASN A   2      -5.193   3.835   8.303  0.00  0.00     0.163 HD
ATOM    166  C   GLY A   1      -5.607   3.428   6.359  0.00  0.00     0.246 C 
ATOM    167  O   GLY A   1      -5.749   2.591   5.471  0.00  0.00    -0.272 OA
BRANCH 166 168
ATOM    168  CA  GLY A   1      -5.784   4.911   6.047  0.00  0.00     0.368 C 
BRANCH 168 169
ATOM    169  N   GLY A   1      -6.139   5.143   4.651  0.00  0.00     0.087 N 
ATOM    170  H02 GLY A   1      -6.411   4.270   4.223  0.00  0.00     0.313 HD
ATOM    171  H01 GLY A   1      -5.344   5.526   4.160  0.00  0.00     0.313 HD
ENDBRANCH 168 169
ENDBRANCH 166 168
ENDBRANCH 163 164
BRANCH 163 172
ATOM    172  CB  ASN A   2      -4.396   1.667   9.388  1.00  0.00     0.137 C 
BRANCH 172 173
ATOM    173  CG  ASN A   2      -2.900   1.887   9.282  1.00  0.00     0.217 C 
ATOM    174  ND2 ASN A   2      -2.492   2.724   8.337  1.00  0.00    -0.370 N 
ATOM    175  H04 ASN A   2      -1.506   2.910   8.218  1.00  0.00     0.159 HD
ATOM    176  H06 ASN A   2      -3.167   3.175   7.736  1.00  0.00     0.159 HD
ATOM    177  OD1 ASN A   2      -2.123   1.309  10.042  1.00  0.00    -0.274 OA
ENDBRANCH 172 173
ENDBRANCH 163 172
ENDBRANCH 161 163
ENDBRANCH 158 159
ENDBRANCH 155 158
ENDBRANCH 150 154
ENDBRANCH 146 150
ENDBRANCH 140 143
ENDBRANCH 138 139
BRANCH 138 178
ATOM    178  CB  ASN A   6      -6.420  -1.811   3.572  1.00  0.00     0.137 C 
BRANCH 178 179
ATOM    179  CG  ASN A   6      -5.345  -1.447   2.567  1.00  0.00     0.217 C 
ATOM    180  OD1 ASN A   6      -4.251  -2.010   2.584  1.00  0.00    -0.274 OA
ATOM    181  ND2 ASN A   6      -5.655  -0.503   1.687  1.00  0.00    -0.370 N 
ATOM    182  H05 ASN A   6      -6.567  -0.069   1.712  1.00  0.00     0.159 HD
ATOM    183  H04 ASN A   6      -4.979  -0.218   0.993  1.00  0.00     0.159 HD
ENDBRANCH 178 179
ENDBRANCH 138 178
ENDBRANCH 135 138
ENDBRANCH 129 134
ENDBRANCH 127 129
ENDBRANCH 124 125
BRANCH 124 184
ATOM    184  CB  ARG A   8      -8.204  -8.231   6.309  1.00  0.00     0.036 C 
BRANCH 184 185
ATOM    185  CG  ARG A   8      -8.748  -7.808   7.663  1.00  0.00     0.023 C 
BRANCH 185 186
ATOM    186  CD  ARG A   8      -8.290  -8.754   8.762  1.00  0.00     0.138 C 
BRANCH 186 187
ATOM    187  NE  ARG A   8      -8.833 -10.097   8.589  1.00  0.00    -0.227 N 
ATOM    188  CZ  ARG A   8      -8.436 -11.159   9.284  1.00  0.00     0.665 C 
ATOM    189  NH1 ARG A   8      -7.486 -11.033  10.201  1.00  0.00    -0.235 N 
ATOM    190  NH2 ARG A   8      -8.989 -12.343   9.059  1.00  0.00    -0.235 N 
ATOM    191  H09 ARG A   8      -7.184 -11.839  10.729  1.00  0.00     0.174 HD
ATOM    192  H10 ARG A   8      -7.065 -10.131  10.371  1.00  0.00     0.174 HD
ATOM    193  H13 ARG A   8      -8.687 -13.150   9.586  1.00  0.00     0.174 HD
ATOM    194  H11 ARG A   8      -9.712 -12.438   8.360  1.00  0.00     0.174 HD
ATOM    195  H08 ARG A   8      -9.557 -10.229   7.897  1.00  0.00     0.177 HD
ENDBRANCH 186 187
ENDBRANCH 185 186
ENDBRANCH 184 185
ENDBRANCH 124 184
ENDBRANCH 122 124
ENDBRANCH 119 120
ENDBRANCH 116 119
ENDBRANCH 110 115
ENDBRANCH 108 110
ENDBRANCH 105 106
BRANCH 105 196
ATOM    196  CB  LEU A  11      -2.653 -10.068   7.120  1.00 59.00     0.038 C 
BRANCH 196 197
ATOM    197  CG  LEU A  11      -4.139 -10.381   6.931  1.00 59.00    -0.020 C 
ATOM    198  CD1 LEU A  11      -4.354 -11.875   6.744  1.00 59.00     0.009 C 
ATOM    199  CD2 LEU A  11      -4.941  -9.934   8.143  1.00 59.00     0.009 C 
ENDBRANCH 196 197
ENDBRANCH 105 196
ENDBRANCH 102 105
ENDBRANCH   1 101
TORSDOF 76
